@<TRIPOS>MOLECULE
molecule
   38    41     1     0     0
SMALL
bcc


@<TRIPOS>ATOM
      1 C10          0.0000     0.0000     0.0000 cc         1 EQY       0.594200
      2 C13          0.8250     0.0150     3.4310 cc         1 EQY       0.182700
      3 C23          5.2980    -1.1890     3.8250 ca         1 EQY      -0.048000
      4 C27          5.3030     1.2170     3.7950 ca         1 EQY       0.460200
      5 C25          7.1850     0.0990     4.5160 ca         1 EQY       0.432200
      6 C24          6.5940    -1.1330     4.3060 ca         1 EQY      -0.255300
      7 C01          3.7180     0.0370     7.3670 c3         1 EQY       0.138700
      8 C03          2.3240     0.0220     5.4280 c          1 EQY       0.662700
      9 C05          2.1130     0.0170     3.9720 cd         1 EQY      -0.306900
     10 C06          3.2480     0.0130     3.0450 cc         1 EQY       0.577800
     11 C08          1.7780     0.0000     1.2510 cd         1 EQY       0.459500
     12 C14         -0.3600     0.0190     4.3090 ca         1 EQY      -0.017000
     13 C15         -1.2270     1.1140     4.3120 ca         1 EQY      -0.125000
     14 C16         -2.3360     1.1110     5.1380 ca         1 EQY       0.159400
     15 C18         -2.5880     0.0260     5.9610 ca         1 EQY      -0.185000
     16 C19         -1.7310    -1.0630     5.9620 ca         1 EQY       0.159400
     17 C21         -0.6230    -1.0750     5.1380 ca         1 EQY      -0.125000
     18 C22          4.6350     0.0150     3.5620 ca         1 EQY      -0.270800
     19 F17         -3.1750     2.1700     5.1410 f          1 EQY      -0.130400
     20 F20         -1.9840    -2.1170     6.7690 f          1 EQY      -0.130400
     21 N07          3.0210     0.0080     1.7440 nd         1 EQY      -0.653000
     22 N09          1.3270     0.0000     0.0000 nc         1 EQY      -0.427300
     23 N11         -0.4400     0.0050     1.2350 nd         1 EQY      -0.594100
     24 N12          0.6850     0.0090     2.0710 na         1 EQY       0.006200
     25 N26          6.5380     1.2190     4.2540 nb         1 EQY      -0.687000
     26 O02          3.5700    -0.1010     5.9280 os         1 EQY      -0.416900
     27 O04          1.3760     0.1380     6.1780 o          1 EQY      -0.538000
     28 H1          -0.6240    -0.0050    -0.8850 h5         1 EQY       0.098800
     29 H2           4.8090    -2.1410     3.6540 ha         1 EQY       0.144000
     30 H3           4.8040     2.1570     3.5940 h4         1 EQY       0.030100
     31 H4           8.2000     0.1460     4.8920 h4         1 EQY       0.026100
     32 H5           7.1370    -2.0450     4.5230 ha         1 EQY       0.144000
     33 H6           3.3350     1.0010     7.6780 h1         1 EQY       0.053700
     34 H7           4.7670    -0.0370     7.6300 h1         1 EQY       0.053700
     35 H8           3.1650    -0.7500     7.8640 h1         1 EQY       0.053700
     36 H9          -1.0310     1.9640     3.6690 ha         1 EQY       0.154500
     37 H10         -3.4570     0.0300     6.6070 ha         1 EQY       0.163000
     38 H11          0.0460    -1.9280     5.1400 ha         1 EQY       0.154500
@<TRIPOS>BOND
     1    20    16 1
     2    15    16 ar
     3    15    14 ar
     4    16    17 ar
     5    19    14 1
     6    14    13 ar
     7    17    12 ar
     8    13    12 ar
     9    12     2 1
    10    23     1 2
    11    23    24 1
    12     2    24 1
    13     2     9 2
    14     1    22 1
    15    24    11 1
    16    27     8 2
    17    22    11 2
    18     9     8 1
    19     9    10 1
    20     8    26 1
    21    11    21 1
    22    26     7 1
    23    10    21 2
    24    10    18 1
    25     4    18 ar
    26     4    25 ar
    27    18     3 ar
    28    25     5 ar
    29     3     6 ar
    30     5     6 ar
    31     1    28 1
    32     3    29 1
    33     4    30 1
    34     5    31 1
    35     6    32 1
    36     7    33 1
    37     7    34 1
    38     7    35 1
    39    13    36 1
    40    15    37 1
    41    17    38 1
@<TRIPOS>SUBSTRUCTURE
     1 EQY         1 TEMP              0 ****  ****    0 ROOT
