@<TRIPOS>MOLECULE
EQZ
   51    54     1     0     0
SMALL
bcc


@<TRIPOS>ATOM
      1 C1           0.0000     0.0000     0.0000 c3         1 EQZ       0.252700
      2 C3           2.0110     0.0000     1.3050 c3         1 EQZ       0.184400
      3 C6           4.3200     2.4850     1.2790 c3         1 EQZ       0.113300
      4 C7           4.7130     3.4890     0.2230 ca         1 EQZ      -0.087300
      5 C8           5.1280     4.8010     0.2820 ca         1 EQZ      -0.087000
      6 C10          5.3100     4.8500    -2.1160 cp         1 EQZ      -0.181500
      7 C11          4.8920     3.5250    -2.1810 ca         1 EQZ       0.028000
      8 C12          4.5910     2.8370    -1.0070 ca         1 EQZ      -0.175600
      9 C13          4.1350     1.4560    -0.7560 c          1 EQZ       0.659100
     10 C15          5.6310     5.5880    -3.3620 cp         1 EQZ       0.540800
     11 C19          7.4040     5.6450    -7.7960 c3         1 EQZ       0.135500
     12 C21          9.1410     6.9850    -8.9840 c3         1 EQZ       0.220900
     13 C23          7.8640     5.3830   -10.2340 c3         1 EQZ       0.220900
     14 C24          7.4470     4.6490    -8.9570 c3         1 EQZ      -0.082900
     15 C26          5.6660     7.5990    -4.6550 ca         1 EQZ       0.501200
     16 C27          5.3470     6.9530    -3.4730 ca         1 EQZ      -0.360200
     17 O2           1.4290     0.0000     0.0000 os         1 EQZ      -0.395600
     18 C4           3.5360    -0.0010     1.1840 c3         1 EQZ       0.082000
     19 N5           3.9770     1.2500     0.5630 n          1 EQZ      -0.166800
     20 C9           5.4270     5.4870    -0.8800 ca         1 EQZ      -0.077000
     21 N16          6.2000     4.9620    -4.3910 nb         1 EQZ      -0.677000
     22 C17          6.4870     5.6190    -5.5040 ca         1 EQZ       0.727900
     23 C20          8.7740     6.3160    -7.6580 c3         1 EQZ      -0.082900
     24 O22          9.1350     6.0080   -10.0280 os         1 EQZ      -0.409600
     25 N25          6.2240     6.9110    -5.6390 nb         1 EQZ      -0.699000
     26 Cl1          4.6140     7.8170    -2.1570 cl         1 EQZ       0.008600
     27 H31         -0.3610    -0.8730     0.5300 h1         1 EQZ      -0.013633
     28 H30         -0.3610    -0.0220    -1.0210 h1         1 EQZ      -0.013633
     29 H29         -0.3610     0.8950     0.4920 h1         1 EQZ      -0.013633
     30 H32          1.6900    -0.8840     1.8430 h1         1 EQZ      -0.007300
     31 H33          1.6920     0.8850     1.8430 h1         1 EQZ      -0.007300
     32 H36          5.1520     2.3060     1.9490 h1         1 EQZ       0.023200
     33 H37          3.4600     2.8440     1.8310 h1         1 EQZ       0.023200
     34 H38          5.2180     5.2970     1.2410 ha         1 EQZ       0.106000
     35 H40          4.7090     3.0620    -3.1430 ha         1 EQZ       0.128000
     36 H41          7.2770     3.9610    -6.4690 hn         1 EQZ       0.304800
     37 H42          6.6520     6.3990    -7.9960 h1         1 EQZ       0.056700
     38 H45         10.1300     7.4220    -8.9050 h1         1 EQZ       0.009700
     39 H46          8.4170     7.7580    -9.2100 h1         1 EQZ       0.009700
     40 H48          7.1260     6.1390   -10.4730 h1         1 EQZ       0.009700
     41 H47          7.9400     4.6740   -11.0490 h1         1 EQZ       0.009700
     42 H49          8.1660     3.8690    -8.7380 hc         1 EQZ       0.030200
     43 H50          6.4640     4.2140    -9.0960 hc         1 EQZ       0.030200
     44 H51          5.4570     8.6550    -4.7750 h4         1 EQZ      -0.010900
     45 H34          3.9760    -0.0910     2.1690 h1         1 EQZ       0.034200
     46 H35          3.8490    -0.8380     0.5710 h1         1 EQZ       0.034200
     47 H39          5.7530     6.5180    -0.8320 ha         1 EQZ       0.128000
     48 H43          9.5190     5.5680    -7.4130 hc         1 EQZ       0.030200
     49 H44          8.7330     7.0630    -6.8750 hc         1 EQZ       0.030200
     50 O14          3.9300     0.6240    -1.6180 o          1 EQZ      -0.652500
     51 N18          7.0780     4.9380    -6.5550 nu         1 EQZ      -0.471900
@<TRIPOS>BOND
     1     1    17 1   
     2     1    27 1   
     3     1    28 1   
     4     1    29 1   
     5     2    17 1   
     6     2    18 1   
     7     2    30 1   
     8     2    31 1   
     9     3     4 1   
    10     3    19 1   
    11     3    32 1   
    12     3    33 1   
    13     4     5 ar  
    14     4     8 ar  
    15     5    20 ar  
    16     5    34 1   
    17     6     7 ar  
    18     6    10 1   
    19     6    20 ar  
    20     7     8 ar  
    21     7    35 1   
    22     8     9 1   
    23     9    19 1   
    24     9    50 2   
    25    10    16 ar  
    26    10    21 ar  
    27    11    14 1   
    28    11    23 1   
    29    11    37 1   
    30    11    51 1   
    31    12    23 1   
    32    12    24 1   
    33    12    38 1   
    34    12    39 1   
    35    13    14 1   
    36    13    24 1   
    37    13    40 1   
    38    13    41 1   
    39    14    42 1   
    40    14    43 1   
    41    15    16 ar  
    42    15    25 ar  
    43    15    44 1   
    44    16    26 1   
    45    18    19 1   
    46    18    45 1   
    47    18    46 1   
    48    20    47 1   
    49    21    22 ar  
    50    22    25 ar  
    51    22    51 1   
    52    23    48 1   
    53    23    49 1   
    54    36    51 1   
@<TRIPOS>SUBSTRUCTURE
     1 EQZ         1 TEMP              0 ****  ****    0 ROOT
