@<TRIPOS>MOLECULE
molecule
   51    54     1     0     0
SMALL
bcc


@<TRIPOS>ATOM
      1 C1           0.0000     0.0000     0.0000 c3         1 EQZ       0.128700
      2 C3           2.0110     0.0000     1.3050 c3         1 EQZ       0.112400
      3 C6           4.3200     2.4850     1.2790 c3         1 EQZ       0.141300
      4 C7           4.7130     3.4890     0.2230 ca         1 EQZ      -0.076300
      5 C8           5.1280     4.8010     0.2820 ca         1 EQZ      -0.127000
      6 C10          5.3100     4.8500    -2.1160 cp         1 EQZ      -0.174500
      7 C11          4.8920     3.5250    -2.1810 ca         1 EQZ      -0.008000
      8 C12          4.5910     2.8370    -1.0070 ca         1 EQZ      -0.167600
      9 C13          4.1350     1.4560    -0.7560 c          1 EQZ       0.721100
     10 C15          5.6310     5.5880    -3.3620 cp         1 EQZ       0.579800
     11 C19          7.4040     5.6450    -7.7960 c3         1 EQZ       0.249500
     12 C21          9.1410     6.9850    -8.9840 c3         1 EQZ       0.140900
     13 C23          7.8640     5.3830   -10.2340 c3         1 EQZ       0.140900
     14 C24          7.4470     4.6490    -8.9570 c3         1 EQZ      -0.134400
     15 C26          5.6660     7.5990    -4.6550 ca         1 EQZ       0.514200
     16 C27          5.3470     6.9530    -3.4730 ca         1 EQZ      -0.290200
     17 O2           1.4290     0.0000     0.0000 os         1 EQZ      -0.407600
     18 C4           3.5360    -0.0010     1.1840 c3         1 EQZ       0.139000
     19 N5           3.9770     1.2500     0.5630 n          1 EQZ      -0.494800
     20 C9           5.4270     5.4870    -0.8800 ca         1 EQZ      -0.077000
     21 N16          6.2000     4.9620    -4.3910 nb         1 EQZ      -0.783000
     22 C17          6.4870     5.6190    -5.5040 ca         1 EQZ       0.948900
     23 C20          8.7740     6.3160    -7.6580 c3         1 EQZ      -0.134400
     24 O22          9.1350     6.0080   -10.0280 os         1 EQZ      -0.422600
     25 N25          6.2240     6.9110    -5.6390 nb         1 EQZ      -0.796000
     26 Cl1          4.6140     7.8170    -2.1570 cl         1 EQZ      -0.093400
     27 H31         -0.3610    -0.8730     0.5300 h1         1 EQZ       0.029367
     28 H30         -0.3610    -0.0220    -1.0210 h1         1 EQZ       0.029367
     29 H29         -0.3610     0.8950     0.4920 h1         1 EQZ       0.029367
     30 H32          1.6900    -0.8840     1.8430 h1         1 EQZ       0.025700
     31 H33          1.6920     0.8850     1.8430 h1         1 EQZ       0.025700
     32 H36          5.1520     2.3060     1.9490 h1         1 EQZ       0.058200
     33 H37          3.4600     2.8440     1.8310 h1         1 EQZ       0.058200
     34 H38          5.2180     5.2970     1.2410 ha         1 EQZ       0.135000
     35 H40          4.7090     3.0620    -3.1430 ha         1 EQZ       0.164000
     36 H41          7.2770     3.9610    -6.4690 hn         1 EQZ       0.461800
     37 H42          6.6520     6.3990    -7.9960 h1         1 EQZ       0.079700
     38 H45         10.1300     7.4220    -8.9050 h1         1 EQZ       0.050200
     39 H46          8.4170     7.7580    -9.2100 h1         1 EQZ       0.050200
     40 H48          7.1260     6.1390   -10.4730 h1         1 EQZ       0.050200
     41 H47          7.9400     4.6740   -11.0490 h1         1 EQZ       0.050200
     42 H49          8.1660     3.8690    -8.7380 hc         1 EQZ       0.059200
     43 H50          6.4640     4.2140    -9.0960 hc         1 EQZ       0.059200
     44 H51          5.4570     8.6550    -4.7750 h4         1 EQZ       0.039100
     45 H34          3.9760    -0.0910     2.1690 h1         1 EQZ       0.068200
     46 H35          3.8490    -0.8380     0.5710 h1         1 EQZ       0.068200
     47 H39          5.7530     6.5180    -0.8320 ha         1 EQZ       0.156000
     48 H43          9.5190     5.5680    -7.4130 hc         1 EQZ       0.059200
     49 H44          8.7330     7.0630    -6.8750 hc         1 EQZ       0.059200
     50 O14          3.9300     0.6240    -1.6180 o          1 EQZ      -0.608500
     51 N18          7.0780     4.9380    -6.5550 nu         1 EQZ      -0.887900
@<TRIPOS>BOND
     1    24    13 1
     2    24    12 1
     3    13    14 1
     4    14    11 1
     5    12    23 1
     6    23    11 1
     7    11    51 1
     8    51    22 1
     9    22    21 ar
    10    22    25 ar
    11    21    10 ar
    12    20     5 ar
    13    20     6 ar
    14     5     4 ar
    15    25    15 ar
    16     4     3 1
    17     4     8 ar
    18    10     6 1
    19    10    16 ar
    20     6     7 ar
    21     3    19 1
    22     8     7 ar
    23     8     9 1
    24    19     9 1
    25    19    18 1
    26    15    16 ar
    27    16    26 1
    28     9    50 2
    29    18     2 1
    30     2    17 1
    31    17     1 1
    32     1    27 1
    33     1    28 1
    34     1    29 1
    35     2    30 1
    36     2    31 1
    37     3    32 1
    38     3    33 1
    39     5    34 1
    40     7    35 1
    41    51    36 1
    42    11    37 1
    43    12    38 1
    44    12    39 1
    45    13    40 1
    46    13    41 1
    47    14    42 1
    48    14    43 1
    49    15    44 1
    50    18    45 1
    51    18    46 1
    52    20    47 1
    53    23    48 1
    54    23    49 1
@<TRIPOS>SUBSTRUCTURE
     1 EQZ         1 TEMP              0 ****  ****    0 ROOT
