@<TRIPOS>MOLECULE
molecule
   60    63     1     0     0
SMALL
bcc


@<TRIPOS>ATOM
      1 CAQ          0.0000     0.0000     0.0000 c3         1 ER4       0.192300
      2 CAO          1.5320     0.0000     0.0000 c3         1 ER4      -0.275400
      3 CBB          2.0260     0.0000     1.4520 c3         1 ER4      -0.086700
      4 CAP          1.4740    -1.2460     2.1560 c3         1 ER4      -0.275400
      5 CAR         -0.0560    -1.2120     2.0970 c3         1 ER4       0.192300
      6 NBC         -0.4880    -0.0010     1.3850 n3         1 ER4      -0.678600
      7 CAT         -0.0550     1.2100     2.0980 c3         1 ER4      -0.158200
      8 CBD          1.4740     1.2450     2.1570 c3         1 ER4       0.259900
      9 OAB          1.9000     1.2510     3.5210 oh         1 ER4      -0.622800
     10 CAD          1.9660     2.4550     1.4780 c1         1 ER4      -0.241100
     11 CAC          2.3750     3.4190     0.9480 cg         1 ER4      -0.076000
     12 CAY          2.3020     4.9370     0.0310 ca         1 ER4      -0.096300
     13 CAJ          1.3960     5.8080     0.2430 ca         1 ER4      -0.008000
     14 CAK          1.3950     6.7870    -0.9180 ca         1 ER4      -0.481300
     15 CAZ          2.4290     6.8820    -1.9050 ca         1 ER4       0.680600
     16 OAW          2.5520     7.6730    -2.7000 os         1 ER4      -0.387100
     17 CAN          1.1800     8.5120    -3.0880 c3         1 ER4       0.179400
     18 CAL          0.1650     7.4190    -3.0080 c3         1 ER4      -0.217400
     19 CAM         -1.2130     7.9500    -2.4770 c3         1 ER4       0.342400
     20 OAV         -1.8730     8.3970    -3.1980 os         1 ER4      -0.423600
     21 CAA         -3.1730     9.1970    -2.8070 c3         1 ER4       0.171700
     22 NAU          3.3550     5.6640    -2.1780 nb         1 ER4      -0.656000
     23 CBA          3.1540     4.6900    -1.2560 ca         1 ER4       0.435600
     24 CAS          4.2330     3.4490    -1.0390 c3         1 ER4      -0.035400
     25 CAX          5.7050     4.0770    -1.0640 ca         1 ER4      -0.094300
     26 CAH          6.9800     3.7430    -1.5940 ca         1 ER4      -0.116000
     27 CAF          8.0850     4.0750    -1.5090 ca         1 ER4      -0.127000
     28 CAE          8.3590     5.2120    -0.2840 ca         1 ER4      -0.097000
     29 CAG          7.3860     5.5760    -0.0510 ca         1 ER4      -0.127000
     30 CAI          5.8070     5.2940    -0.0080 ca         1 ER4      -0.116000
     31 H1          -0.3500     0.8890    -0.5100 h1         1 ER4       0.069700
     32 H2          -0.3500    -0.8730    -0.5370 h1         1 ER4       0.069700
     33 H3           1.8820    -0.8890    -0.5100 hc         1 ER4       0.105200
     34 H4           1.8820     0.8730    -0.5370 hc         1 ER4       0.105200
     35 H5           3.1080    -0.0000     1.4800 hc         1 ER4       0.109700
     36 H6           1.9400    -1.3330     3.1310 hc         1 ER4       0.105200
     37 H7           0.4050    -1.1300     2.2880 hc         1 ER4       0.105200
     38 H8          -0.4070    -2.1050     1.5940 h1         1 ER4       0.069700
     39 H9          -0.4450    -1.2040     3.1080 h1         1 ER4       0.069700
     40 H11          1.0260     1.2670     2.1100 h1         1 ER4       0.150200
     41 H12         -0.4370     1.1980     3.1120 h1         1 ER4       0.150200
     42 H13          2.0470     2.1390     3.8010 ho         1 ER4       0.435000
     43 H14          0.6080     5.7210     0.9810 ha         1 ER4       0.173000
     44 H15          0.6680     7.5890    -0.8880 ha         1 ER4       0.143000
     45 H16          0.9770     9.2880    -2.3600 h1         1 ER4       0.085200
     46 H17          1.2400     8.9170    -4.0910 h1         1 ER4       0.085200
     47 H18          0.0240     6.9940    -3.9950 hc         1 ER4       0.106200
     48 H19          0.5280     6.6470    -2.3400 hc         1 ER4       0.106200
     49 H20         -1.0120     8.6860    -1.7080 h1         1 ER4      -0.106300
     50 H21         -1.7350     7.1190    -2.0180 h1         1 ER4      -0.106300
     51 H22         -3.8160     9.2880    -3.6740 h1         1 ER4       0.053700
     52 H23         -3.6990     8.6690    -2.0210 h1         1 ER4       0.053700
     53 H24         -2.8970    10.1840    -2.4560 h1         1 ER4       0.053700
     54 H25          4.1290     2.7270    -1.8400 hc         1 ER4       0.075200
     55 H26          4.0550     2.9690    -0.0850 hc         1 ER4       0.075200
     56 H27          6.8720     3.0080    -2.3830 ha         1 ER4       0.134000
     57 H28          8.8830     3.5520    -2.0210 ha         1 ER4       0.096000
     58 H29          9.3050     5.7130    -0.1190 ha         1 ER4       0.140000
     59 H30          7.5410     6.3710     0.6680 ha         1 ER4       0.096000
     60 H31          5.0300     5.9910     0.2810 ha         1 ER4       0.134000
@<TRIPOS>BOND
     1    21    20 1
     2    20    19 1
     3    19    18 1
     4    18    17 1
     5    17    16 1
     6    16    15 1
     7    29    28 ar
     8    29    30 ar
     9    28    27 ar
    10    15    22 ar
    11    15    14 ar
    12    30    25 ar
    13    22    23 ar
    14    27    26 ar
    15    25    26 ar
    16    25    24 1
    17    14    13 ar
    18    23    24 1
    19    23    12 ar
    20    13    12 ar
    21    12    11 1
    22    11    10 3
    23     1     2 1
    24     1     6 1
    25     2     3 1
    26    10     8 1
    27     6     7 1
    28     6     5 1
    29     7     8 1
    30     8     3 1
    31     8     9 1
    32     3     4 1
    33     5     4 1
    34     1    31 1
    35     1    32 1
    36     2    33 1
    37     2    34 1
    38     3    35 1
    39     4    36 1
    40     4    37 1
    41     5    38 1
    42     5    39 1
    43     7    40 1
    44     7    41 1
    45     9    42 1
    46    13    43 1
    47    14    44 1
    48    17    45 1
    49    17    46 1
    50    18    47 1
    51    18    48 1
    52    19    49 1
    53    19    50 1
    54    21    51 1
    55    21    52 1
    56    21    53 1
    57    24    54 1
    58    24    55 1
    59    26    56 1
    60    27    57 1
    61    28    58 1
    62    29    59 1
    63    30    60 1
@<TRIPOS>SUBSTRUCTURE
     1 ER4         1 TEMP              0 ****  ****    0 ROOT
