@<TRIPOS>MOLECULE
ER4
   60    63     1     0     0
SMALL
bcc


@<TRIPOS>ATOM
      1 CAQ          0.0000     0.0000     0.0000 c3         1 ER4       0.282300
      2 CAO          1.5320     0.0000     0.0000 c3         1 ER4      -0.157400
      3 CBB          2.0260     0.0000     1.4520 c3         1 ER4      -0.107700
      4 CAP          1.4740    -1.2460     2.1560 c3         1 ER4      -0.157400
      5 CAR         -0.0560    -1.2120     2.0970 c3         1 ER4       0.282300
      6 NBC         -0.4880    -0.0010     1.3850 n3         1 ER4      -0.465600
      7 CAT         -0.0550     1.2100     2.0980 c3         1 ER4      -0.229200
      8 CBD          1.4740     1.2450     2.1570 c3         1 ER4       0.486900
      9 OAB          1.9000     1.2510     3.5210 oh         1 ER4      -0.622800
     10 CAD          1.9660     2.4550     1.4780 c1         1 ER4      -0.247100
     11 CAC          2.3750     3.4190     0.9480 cg         1 ER4      -0.068000
     12 CAY          2.3020     4.9370     0.0310 ca         1 ER4      -0.069300
     13 CAJ          1.3960     5.8080     0.2430 ca         1 ER4       0.026000
     14 CAK          1.3950     6.7870    -0.9180 ca         1 ER4      -0.506300
     15 CAZ          2.4290     6.8820    -1.9050 ca         1 ER4       0.713600
     16 OAW          2.5520     7.6730    -2.7000 os         1 ER4      -0.373100
     17 CAN          1.1800     8.5120    -3.0880 c3         1 ER4       0.260400
     18 CAL          0.1650     7.4190    -3.0080 c3         1 ER4      -0.229400
     19 CAM         -1.2130     7.9500    -2.4770 c3         1 ER4       0.423400
     20 OAV         -1.8730     8.3970    -3.1980 os         1 ER4      -0.404600
     21 CAA         -3.1730     9.1970    -2.8070 c3         1 ER4       0.281700
     22 NAU          3.3550     5.6640    -2.1780 nb         1 ER4      -0.651000
     23 CBA          3.1540     4.6900    -1.2560 ca         1 ER4       0.443600
     24 CAS          4.2330     3.4490    -1.0390 c3         1 ER4       0.029600
     25 CAX          5.7050     4.0770    -1.0640 ca         1 ER4      -0.080300
     26 CAH          6.9800     3.7430    -1.5940 ca         1 ER4      -0.091500
     27 CAF          8.0850     4.0750    -1.5090 ca         1 ER4      -0.104000
     28 CAE          8.3590     5.2120    -0.2840 ca         1 ER4      -0.066000
     29 CAG          7.3860     5.5760    -0.0510 ca         1 ER4      -0.104000
     30 CAI          5.8070     5.2940    -0.0080 ca         1 ER4      -0.091500
     31 H1          -0.3500     0.8890    -0.5100 h1         1 ER4       0.020950
     32 H2          -0.3500    -0.8730    -0.5370 h1         1 ER4       0.020950
     33 H3           1.8820    -0.8890    -0.5100 hc         1 ER4       0.022700
     34 H4           1.8820     0.8730    -0.5370 hc         1 ER4       0.022700
     35 H5           3.1080    -0.0000     1.4800 hc         1 ER4       0.077700
     36 H6           1.9400    -1.3330     3.1310 hc         1 ER4       0.022700
     37 H7           0.4050    -1.1300     2.2880 hc         1 ER4       0.022700
     38 H8          -0.4070    -2.1050     1.5940 h1         1 ER4       0.020950
     39 H9          -0.4450    -1.2040     3.1080 h1         1 ER4       0.020950
     40 H11          1.0260     1.2670     2.1100 h1         1 ER4       0.056200
     41 H12         -0.4370     1.1980     3.1120 h1         1 ER4       0.056200
     42 H13          2.0470     2.1390     3.8010 ho         1 ER4       0.432000
     43 H14          0.6080     5.7210     0.9810 ha         1 ER4       0.141000
     44 H15          0.6680     7.5890    -0.8880 ha         1 ER4       0.144000
     45 H16          0.9770     9.2880    -2.3600 h1         1 ER4       0.033700
     46 H17          1.2400     8.9170    -4.0910 h1         1 ER4       0.033700
     47 H18          0.0240     6.9940    -3.9950 hc         1 ER4       0.088200
     48 H19          0.5280     6.6470    -2.3400 hc         1 ER4       0.088200
     49 H20         -1.0120     8.6860    -1.7080 h1         1 ER4      -0.124300
     50 H21         -1.7350     7.1190    -2.0180 h1         1 ER4      -0.124300
     51 H22         -3.8160     9.2880    -3.6740 h1         1 ER4      -0.000967
     52 H23         -3.6990     8.6690    -2.0210 h1         1 ER4      -0.000967
     53 H24         -2.8970    10.1840    -2.4560 h1         1 ER4      -0.000967
     54 H25          4.1290     2.7270    -1.8400 hc         1 ER4       0.035200
     55 H26          4.0550     2.9690    -0.0850 hc         1 ER4       0.035200
     56 H27          6.8720     3.0080    -2.3830 ha         1 ER4       0.102000
     57 H28          8.8830     3.5520    -2.0210 ha         1 ER4       0.068000
     58 H29          9.3050     5.7130    -0.1190 ha         1 ER4       0.112000
     59 H30          7.5410     6.3710     0.6680 ha         1 ER4       0.068000
     60 H31          5.0300     5.9910     0.2810 ha         1 ER4       0.102000
@<TRIPOS>BOND
     1     1     2 1   
     2     1     6 1   
     3     1    31 1   
     4     1    32 1   
     5     2     3 1   
     6     2    33 1   
     7     2    34 1   
     8     3     4 1   
     9     3     8 1   
    10     3    35 1   
    11     4     5 1   
    12     4    36 1   
    13     4    37 1   
    14     5     6 1   
    15     5    38 1   
    16     5    39 1   
    17     6     7 1   
    18     7     8 1   
    19     7    40 1   
    20     7    41 1   
    21     8     9 1   
    22     8    10 1   
    23     9    42 1   
    24    10    11 3   
    25    11    12 1   
    26    12    13 ar  
    27    12    23 ar  
    28    13    14 ar  
    29    13    43 1   
    30    14    15 ar  
    31    14    44 1   
    32    15    16 1   
    33    15    22 ar  
    34    16    17 1   
    35    17    18 1   
    36    17    45 1   
    37    17    46 1   
    38    18    19 1   
    39    18    47 1   
    40    18    48 1   
    41    19    20 1   
    42    19    49 1   
    43    19    50 1   
    44    20    21 1   
    45    21    51 1   
    46    21    52 1   
    47    21    53 1   
    48    22    23 ar  
    49    23    24 1   
    50    24    25 1   
    51    24    54 1   
    52    24    55 1   
    53    25    26 ar  
    54    25    30 ar  
    55    26    27 ar  
    56    26    56 1   
    57    27    28 ar  
    58    27    57 1   
    59    28    29 ar  
    60    28    58 1   
    61    29    30 ar  
    62    29    59 1   
    63    30    60 1   
@<TRIPOS>SUBSTRUCTURE
     1 ER4         1 TEMP              0 ****  ****    0 ROOT
