@<TRIPOS>MOLECULE
ER5
   73    75     1     0     0
SMALL
bcc


@<TRIPOS>ATOM
      1 F15          0.0000     0.0000     0.0000 f          1 ER5      -0.087900
      2 C9           1.3510     0.0000     0.0000 ca         1 ER5       0.129900
      3 C10          2.0470     0.0000     1.2030 ca         1 ER5       0.057900
      4 S30          1.1690    -0.0030     2.7300 ss         1 ER5      -0.320000
      5 C31          0.9670    -1.7700     3.0820 c3         1 ER5       0.113700
      6 C32          0.2090    -1.9440     4.4000 c3         1 ER5       0.062900
      7 C33          0.0410    -3.4130     4.6920 ca         1 ER5      -0.126300
      8 C34          1.0050    -4.0840     5.4240 ca         1 ER5      -0.140500
      9 C35          0.8570    -5.4290     5.6960 ca         1 ER5      -0.073000
     10 C36         -0.2680    -6.1120     5.2300 ca         1 ER5      -0.099600
     11 C39         -0.4330    -7.5510     5.5170 c          1 ER5       0.962200
     12 O40         -1.5190    -8.2080     5.0660 o          1 ER5      -0.830300
     13 O41          0.4120    -8.1430     6.1600 o          1 ER5      -0.830300
     14 C37         -1.2360    -5.4290     4.4920 ca         1 ER5      -0.073000
     15 C38         -1.0790    -4.0830     4.2320 ca         1 ER5      -0.140500
     16 C11          3.4380     0.0000     1.1990 ca         1 ER5       0.145900
     17 F14          4.1160    -0.0000     2.3680 f          1 ER5      -0.079900
     18 C12          4.1270     0.0010    -0.0010 ca         1 ER5       0.151900
     19 F13          5.4790     0.0020    -0.0040 f          1 ER5      -0.097900
     20 C8           2.0470    -0.0050    -1.2010 ca         1 ER5       0.109600
     21 C7           3.4360     0.0020    -1.2000 ca         1 ER5      -0.203500
     22 S37          4.3180     0.0040    -2.7260 sy         1 ER5       0.912200
     23 O38          3.3830     0.3770    -3.7290 o          1 ER5      -0.488800
     24 N40          4.7470    -1.5640    -3.0450 nz         1 ER5      -0.156500
     25 O39          5.5270     0.7110    -2.4890 o          1 ER5      -0.488800
     26 N16          1.3480    -0.0040    -2.4150 nu         1 ER5      -0.478600
     27 C18          0.4980     1.1880    -2.5330 c3         1 ER5       0.117500
     28 C19          1.3620     2.3950    -2.9020 c3         1 ER5      -0.050400
     29 C20          1.3730     3.3900    -1.7380 c3         1 ER5      -0.042400
     30 C21          0.9630     4.7730    -2.2460 c3         1 ER5      -0.034900
     31 C22         -0.1940     5.3060    -1.3980 c3         1 ER5      -0.038400
     32 C23         -1.3510     5.7150    -2.3120 c3         1 ER5      -0.037400
     33 C24         -2.6330     5.0220    -1.8520 c3         1 ER5      -0.038400
     34 C25         -3.2640     4.2800    -3.0320 c3         1 ER5      -0.037400
     35 C26         -3.5080     2.8200    -2.6460 c3         1 ER5      -0.038400
     36 C27         -2.8640     1.9020    -3.6880 c3         1 ER5      -0.034900
     37 C28         -1.9420     0.9030    -2.9860 c3         1 ER5      -0.042400
     38 C29         -0.5510     0.9600    -3.6230 c3         1 ER5      -0.050400
     39 H1           0.4080    -2.2370     2.2790 h1         1 ER5       0.040700
     40 H2           1.9420    -2.2360     3.1620 h1         1 ER5       0.040700
     41 H3          -0.7660    -1.4780     4.3200 hc         1 ER5       0.027200
     42 H4           0.7680    -1.4770     5.2020 hc         1 ER5       0.027200
     43 H5           1.8800    -3.5540     5.7800 ha         1 ER5       0.097500
     44 H6           1.5770    -5.9360     6.3270 ha         1 ER5       0.129500
     45 H8          -2.0680    -5.9710     4.0570 ha         1 ER5       0.129500
     46 H9          -2.0280    -3.7230     3.8530 ha         1 ER5       0.097500
     47 H10          5.4710    -1.8460    -2.4150 hn         1 ER5       0.309467
     48 H11          3.9500    -2.1580    -2.9270 hn         1 ER5       0.309467
     49 H12          1.0560    -0.8700    -2.8240 hn         1 ER5       0.305800
     50 H13          0.0030     1.3740    -1.5880 h1         1 ER5       0.054700
     51 H14          0.9550     2.8750    -3.7840 hc         1 ER5       0.035200
     52 H15          2.3740     2.0670    -3.1060 hc         1 ER5       0.035200
     53 H16          0.6740     3.0630    -0.9780 hc         1 ER5       0.021200
     54 H17          2.3690     3.4410    -1.3160 hc         1 ER5       0.021200
     55 H18          1.8070     5.4490    -2.1720 hc         1 ER5       0.020950
     56 H19          0.6490     4.7000    -3.2810 hc         1 ER5       0.020950
     57 H20         -0.5280     4.5330    -0.7170 hc         1 ER5       0.022200
     58 H21          0.1410     6.1670    -0.8310 hc         1 ER5       0.022200
     59 H22         -1.4850     6.7900    -2.2670 hc         1 ER5       0.019950
     60 H23         -1.1270     5.4230    -3.3310 hc         1 ER5       0.019950
     61 H24         -2.3990     4.3150    -1.0650 hc         1 ER5       0.021700
     62 H25         -3.3290     5.7620    -1.4770 hc         1 ER5       0.021700
     63 H26         -2.5960     4.3220    -3.8840 hc         1 ER5       0.019950
     64 H27         -4.2070     4.7470    -3.2900 hc         1 ER5       0.019950
     65 H28         -4.5730     2.6300    -2.6070 hc         1 ER5       0.022200
     66 H29         -3.0700     2.6260    -1.6750 hc         1 ER5       0.022200
     67 H30         -2.2880     2.4970    -4.3860 hc         1 ER5       0.020950
     68 H31         -3.6380     1.3650    -4.2230 hc         1 ER5       0.020950
     69 H32         -1.8690     1.1550    -1.9350 hc         1 ER5       0.021200
     70 H33         -2.3460    -0.0970    -3.0910 hc         1 ER5       0.021200
     71 H34         -0.3480     0.0250    -4.1310 hc         1 ER5       0.035200
     72 H35         -0.5140     1.7750    -4.3360 hc         1 ER5       0.035200
     73 H403         5.0940    -1.6300    -3.9820 hn         1 ER5       0.309467
@<TRIPOS>BOND
     1     1     2 1   
     2     2     3 ar  
     3     2    20 ar  
     4     3     4 1   
     5     3    16 ar  
     6     4     5 1   
     7     5     6 1   
     8     5    39 1   
     9     5    40 1   
    10     6     7 1   
    11     6    41 1   
    12     6    42 1   
    13     7     8 ar  
    14     7    15 ar  
    15     8     9 ar  
    16     8    43 1   
    17     9    10 ar  
    18     9    44 1   
    19    10    11 1   
    20    10    14 ar  
    21    11    12 1   
    22    11    13 1   
    23    14    15 ar  
    24    14    45 1   
    25    15    46 1   
    26    16    17 1   
    27    16    18 ar  
    28    18    19 1   
    29    18    21 ar  
    30    20    21 ar  
    31    20    26 1   
    32    21    22 1   
    33    22    23 2   
    34    22    24 1   
    35    22    25 2   
    36    24    47 1   
    37    24    48 1   
    38    24    73 1   
    39    26    27 1   
    40    26    49 1   
    41    27    28 1   
    42    27    38 1   
    43    27    50 1   
    44    28    29 1   
    45    28    51 1   
    46    28    52 1   
    47    29    30 1   
    48    29    53 1   
    49    29    54 1   
    50    30    31 1   
    51    30    55 1   
    52    30    56 1   
    53    31    32 1   
    54    31    57 1   
    55    31    58 1   
    56    32    33 1   
    57    32    59 1   
    58    32    60 1   
    59    33    34 1   
    60    33    61 1   
    61    33    62 1   
    62    34    35 1   
    63    34    63 1   
    64    34    64 1   
    65    35    36 1   
    66    35    65 1   
    67    35    66 1   
    68    36    37 1   
    69    36    67 1   
    70    36    68 1   
    71    37    38 1   
    72    37    69 1   
    73    37    70 1   
    74    38    71 1   
    75    38    72 1   
@<TRIPOS>SUBSTRUCTURE
     1 ER5         1 TEMP              0 ****  ****    0 ROOT
