@<TRIPOS>MOLECULE
molecule
   73    75     1     0     0
SMALL
bcc


@<TRIPOS>ATOM
      1 F15          0.0000     0.0000     0.0000 f          1 ER5      -0.086900
      2 C9           1.3510     0.0000     0.0000 ca         1 ER5       0.137900
      3 C10          2.0470     0.0000     1.2030 ca         1 ER5       0.033900
      4 S30          1.1690    -0.0030     2.7300 ss         1 ER5      -0.246000
      5 C31          0.9670    -1.7700     3.0820 c3         1 ER5       0.021700
      6 C32          0.2090    -1.9440     4.4000 c3         1 ER5      -0.009100
      7 C33          0.0410    -3.4130     4.6920 ca         1 ER5      -0.115300
      8 C34          1.0050    -4.0840     5.4240 ca         1 ER5      -0.159500
      9 C35          0.8570    -5.4290     5.6960 ca         1 ER5      -0.102500
     10 C36         -0.2680    -6.1120     5.2300 ca         1 ER5      -0.095600
     11 C39         -0.4330    -7.5510     5.5170 c          1 ER5       0.874200
     12 O40         -1.5190    -8.2080     5.0660 o          1 ER5      -0.798300
     13 O41          0.4120    -8.1430     6.1600 o          1 ER5      -0.798300
     14 C37         -1.2360    -5.4290     4.4920 ca         1 ER5      -0.102500
     15 C38         -1.0790    -4.0830     4.2320 ca         1 ER5      -0.159500
     16 C11          3.4380     0.0000     1.1990 ca         1 ER5       0.148900
     17 F14          4.1160    -0.0000     2.3680 f          1 ER5      -0.077900
     18 C12          4.1270     0.0010    -0.0010 ca         1 ER5       0.151900
     19 F13          5.4790     0.0020    -0.0040 f          1 ER5      -0.107900
     20 C8           2.0470    -0.0050    -1.2010 ca         1 ER5       0.201600
     21 C7           3.4360     0.0020    -1.2000 ca         1 ER5      -0.334500
     22 S37          4.3180     0.0040    -2.7260 sy         1 ER5       1.216200
     23 O38          3.3830     0.3770    -3.7290 o          1 ER5      -0.511300
     24 N40          4.7470    -1.5640    -3.0450 nz         1 ER5      -0.802500
     25 O39          5.5270     0.7110    -2.4890 o          1 ER5      -0.511300
     26 N16          1.3480    -0.0040    -2.4150 nu         1 ER5      -0.824600
     27 C18          0.4980     1.1880    -2.5330 c3         1 ER5       0.213500
     28 C19          1.3620     2.3950    -2.9020 c3         1 ER5      -0.087900
     29 C20          1.3730     3.3900    -1.7380 c3         1 ER5      -0.089900
     30 C21          0.9630     4.7730    -2.2460 c3         1 ER5      -0.082900
     31 C22         -0.1940     5.3060    -1.3980 c3         1 ER5      -0.084400
     32 C23         -1.3510     5.7150    -2.3120 c3         1 ER5      -0.084400
     33 C24         -2.6330     5.0220    -1.8520 c3         1 ER5      -0.084400
     34 C25         -3.2640     4.2800    -3.0320 c3         1 ER5      -0.084400
     35 C26         -3.5080     2.8200    -2.6460 c3         1 ER5      -0.084400
     36 C27         -2.8640     1.9020    -3.6880 c3         1 ER5      -0.082900
     37 C28         -1.9420     0.9030    -2.9860 c3         1 ER5      -0.089900
     38 C29         -0.5510     0.9600    -3.6230 c3         1 ER5      -0.087900
     39 H1           0.4080    -2.2370     2.2790 h1         1 ER5       0.068200
     40 H2           1.9420    -2.2360     3.1620 h1         1 ER5       0.068200
     41 H3          -0.7660    -1.4780     4.3200 hc         1 ER5       0.055700
     42 H4           0.7680    -1.4770     5.2020 hc         1 ER5       0.055700
     43 H5           1.8800    -3.5540     5.7800 ha         1 ER5       0.116000
     44 H6           1.5770    -5.9360     6.3270 ha         1 ER5       0.156000
     45 H8          -2.0680    -5.9710     4.0570 ha         1 ER5       0.156000
     46 H9          -2.0280    -3.7230     3.8530 ha         1 ER5       0.116000
     47 H10          5.4710    -1.8460    -2.4150 hn         1 ER5       0.487133
     48 H11          3.9500    -2.1580    -2.9270 hn         1 ER5       0.487133
     49 H12          1.0560    -0.8700    -2.8240 hn         1 ER5       0.435800
     50 H13          0.0030     1.3740    -1.5880 h1         1 ER5       0.064700
     51 H14          0.9550     2.8750    -3.7840 hc         1 ER5       0.055200
     52 H15          2.3740     2.0670    -3.1060 hc         1 ER5       0.055200
     53 H16          0.6740     3.0630    -0.9780 hc         1 ER5       0.045950
     54 H17          2.3690     3.4410    -1.3160 hc         1 ER5       0.045950
     55 H18          1.8070     5.4490    -2.1720 hc         1 ER5       0.044950
     56 H19          0.6490     4.7000    -3.2810 hc         1 ER5       0.044950
     57 H20         -0.5280     4.5330    -0.7170 hc         1 ER5       0.046200
     58 H21          0.1410     6.1670    -0.8310 hc         1 ER5       0.046200
     59 H22         -1.4850     6.7900    -2.2670 hc         1 ER5       0.043200
     60 H23         -1.1270     5.4230    -3.3310 hc         1 ER5       0.043200
     61 H24         -2.3990     4.3150    -1.0650 hc         1 ER5       0.045200
     62 H25         -3.3290     5.7620    -1.4770 hc         1 ER5       0.045200
     63 H26         -2.5960     4.3220    -3.8840 hc         1 ER5       0.043200
     64 H27         -4.2070     4.7470    -3.2900 hc         1 ER5       0.043200
     65 H28         -4.5730     2.6300    -2.6070 hc         1 ER5       0.046200
     66 H29         -3.0700     2.6260    -1.6750 hc         1 ER5       0.046200
     67 H30         -2.2880     2.4970    -4.3860 hc         1 ER5       0.044950
     68 H31         -3.6380     1.3650    -4.2230 hc         1 ER5       0.044950
     69 H32         -1.8690     1.1550    -1.9350 hc         1 ER5       0.045950
     70 H33         -2.3460    -0.0970    -3.0910 hc         1 ER5       0.045950
     71 H34         -0.3480     0.0250    -4.1310 hc         1 ER5       0.055200
     72 H35         -0.5140     1.7750    -4.3360 hc         1 ER5       0.055200
     73 H403         5.0940    -1.6300    -3.9820 hn         1 ER5       0.487133
@<TRIPOS>BOND
     1    33    34 1
     2    33    32 1
     3    34    35 1
     4    32    31 1
     5    25    22 2
     6    35    36 1
     7    23    22 2
     8    22    24 1
     9    22    21 1
    10    36    37 1
    11    31    30 1
    12    29    30 1
    13    29    28 1
    14    38    37 1
    15    38    27 1
    16    21    18 ar
    17    21    20 ar
    18    26    27 1
    19    26    20 1
    20    19    18 1
    21    28    27 1
    22    18    16 ar
    23    20     2 ar
    24    16    17 1
    25    16     3 ar
    26     2     3 ar
    27     2     1 1
    28     3     4 1
    29     6     5 1
    30     6     7 1
    31     5     4 1
    32    15     7 ar
    33    15    14 ar
    34     7     8 ar
    35    14    10 ar
    36     8     9 ar
    37    10     9 ar
    38    10    11 1
    39    11    12 1
    40    11    13 1
    41     5    39 1
    42     5    40 1
    43     6    41 1
    44     6    42 1
    45     8    43 1
    46     9    44 1
    47    14    45 1
    48    15    46 1
    49    24    47 1
    50    24    48 1
    51    26    49 1
    52    27    50 1
    53    28    51 1
    54    28    52 1
    55    29    53 1
    56    29    54 1
    57    30    55 1
    58    30    56 1
    59    31    57 1
    60    31    58 1
    61    32    59 1
    62    32    60 1
    63    33    61 1
    64    33    62 1
    65    34    63 1
    66    34    64 1
    67    35    65 1
    68    35    66 1
    69    36    67 1
    70    36    68 1
    71    37    69 1
    72    37    70 1
    73    38    71 1
    74    38    72 1
    75    73    24 1
@<TRIPOS>SUBSTRUCTURE
     1 ER5         1 TEMP              0 ****  ****    0 ROOT
