@<TRIPOS>MOLECULE
molecule
   31    33     1     0     0
SMALL
bcc


@<TRIPOS>ATOM
      1 N1           0.0000     0.0000     0.0000 nc         1 ER7      -0.437300
      2 C2           4.6140    -1.0900     4.8560 ca         1 ER7      -0.104000
      3 N2           0.5630    -0.0010     2.0810 nc         1 ER7      -0.602100
      4 N3           1.7300     0.0000     1.3070 na         1 ER7       0.015200
      5 C4           3.5020     0.0010     3.0240 ca         1 ER7      -0.050000
      6 C6           3.9910     0.0010     0.5720 cd         1 ER7      -0.345900
      7 C7           5.4300     0.0020     0.8510 c          1 ER7       0.587700
      8 C9           3.5140     0.0020    -0.7580 cc         1 ER7       0.513600
      9 N            2.2260     0.0020    -0.9950 nd         1 ER7      -0.668000
     10 C            3.6550     1.0910     5.1620 ca         1 ER7       0.136900
     11 O            5.9450     0.9640     1.3820 o          1 ER7      -0.497100
     12 C1           4.3430    -0.0020     5.6660 ca         1 ER7      -0.143000
     13 C10          4.4900     0.0050    -1.9060 c3         1 ER7      -0.149400
     14 C11          1.3280     0.0000     0.0000 cd         1 ER7       0.459500
     15 C12         -0.4500    -0.0010     1.2490 cd         1 ER7       0.592200
     16 C13          3.2270     1.0940     3.8490 ca         1 ER7      -0.109000
     17 C3           4.2020    -1.0960     3.5400 ca         1 ER7      -0.115000
     18 C5           3.0590     0.0000     1.6190 cc         1 ER7       0.157700
     19 C8           6.2710    -1.1920     0.4780 c3         1 ER7      -0.187100
     20 F            3.3900     2.1480     5.9610 f          1 ER7      -0.132900
     21 H2           4.6730    -0.0020     6.6970 ha         1 ER7       0.150000
     22 H3           5.3030     0.6860    -1.6870 hc         1 ER7       0.066367
     23 H4           3.9840     0.3260    -2.8090 hc         1 ER7       0.066367
     24 H5           4.8830    -0.9940    -2.0480 hc         1 ER7       0.066367
     25 H6          -1.4940    -0.0010     1.5360 h5         1 ER7       0.095800
     26 H7           2.6870     1.9480     3.4560 ha         1 ER7       0.160000
     27 H8           4.4170    -1.9480     2.9080 ha         1 ER7       0.137000
     28 H9           6.8920    -1.4730     1.3200 hc         1 ER7       0.065700
     29 H10          6.9000    -0.9410    -0.3670 hc         1 ER7       0.065700
     30 H11          5.6250    -2.0200     0.2140 hc         1 ER7       0.065700
     31 H1           5.1530    -1.9400     5.2560 ha         1 ER7       0.143000
@<TRIPOS>BOND
     1    20    10 1
     2    12    10 ar
     3    12     2 ar
     4    10    16 ar
     5     2    17 ar
     6    16     5 ar
     7    17     5 ar
     8     5    18 1
     9     3    15 2
    10     3     4 1
    11    15     1 1
    12    18     4 1
    13    18     6 2
    14    11     7 2
    15     4    14 1
    16     7     6 1
    17     7    19 1
    18     6     8 1
    19     1    14 2
    20    14     9 1
    21     9     8 2
    22     8    13 1
    23     2    31 1
    24    12    21 1
    25    13    22 1
    26    13    23 1
    27    13    24 1
    28    15    25 1
    29    16    26 1
    30    17    27 1
    31    19    28 1
    32    19    29 1
    33    19    30 1
@<TRIPOS>SUBSTRUCTURE
     1 ER7         1 TEMP              0 ****  ****    0 ROOT
