@<TRIPOS>MOLECULE
molecule
   60    63     1     0     0
SMALL
bcc


@<TRIPOS>ATOM
      1 C1           0.0000     0.0000     0.0000 c3         1 ER8      -0.100767
      2 C2           1.5300     0.0000     0.0000 c3         1 ER8       0.123400
      3 C3           2.0390     0.0000     1.4440 c3         1 ER8      -0.100767
      4 C6           1.6920     2.4210    -0.2300 c          1 ER8       0.636100
      5 C8           2.1960     3.6500    -0.9410 c3         1 ER8       0.062000
      6 C10          2.3960     5.5440     0.8410 c3         1 ER8       0.144300
      7 C11          1.5120     6.7060     1.2240 ca         1 ER8      -0.069300
      8 C12          1.6250     7.7030     2.1670 ca         1 ER8      -0.127000
      9 C13          0.6330     8.6570     2.2910 ca         1 ER8      -0.074000
     10 C14         -0.4870     8.6120     1.4620 cp         1 ER8      -0.175500
     11 C15         -0.6060     7.6070     0.5060 ca         1 ER8      -0.007000
     12 C16          0.3970     6.6480     0.3830 ca         1 ER8      -0.166600
     13 C19         -1.5520     9.6350     1.5970 cp         1 ER8       0.579800
     14 C21         -3.1560    10.9910     0.6430 ca         1 ER8       0.948900
     15 C23         -4.8710    12.4390    -0.3820 c3         1 ER8       0.249500
     16 C24         -5.0040    13.1870    -1.7130 c3         1 ER8      -0.134400
     17 C25         -6.1600    14.1860    -1.6140 c3         1 ER8       0.140900
     18 C27         -7.3130    12.8100    -0.0220 c3         1 ER8       0.140900
     19 C28         -6.2030    11.7560    -0.0560 c3         1 ER8      -0.134400
     20 C31         -1.8810    10.1550     2.8520 ca         1 ER8      -0.289200
     21 C4           2.0400    -1.2500    -0.7200 c3         1 ER8      -0.100767
     22 N5           2.0180     1.1960    -0.6900 ns         1 ER8      -0.582900
     23 O7           0.9940     2.5320     0.7550 o          1 ER8      -0.592100
     24 N9           1.7060     4.8460    -0.2510 n          1 ER8      -0.477800
     25 C17          0.5530     5.4850    -0.5130 c          1 ER8       0.728100
     26 O18         -0.2470     5.1530    -1.3660 o          1 ER8      -0.624500
     27 N20         -2.2060    10.0770     0.5240 nb         1 ER8      -0.785000
     28 N22         -3.8160    11.4290    -0.4930 nu         1 ER8      -0.887900
     29 O26         -7.3630    13.4890    -1.2800 os         1 ER8      -0.422600
     30 N29         -3.4930    11.4970     1.8210 nb         1 ER8      -0.796000
     31 C30         -2.8820    11.1090     2.9290 ca         1 ER8       0.514200
     32 Cl3         -1.0540     9.6180     4.2810 cl         1 ER8      -0.091400
     33 H34         -0.3610    -1.0070     0.1720 hc         1 ER8       0.045478
     34 H33         -0.3610     0.3540    -0.9580 hc         1 ER8       0.045478
     35 H35         -0.3610     0.6530     0.7860 hc         1 ER8       0.045478
     36 H38          3.0550     0.3760     1.4680 hc         1 ER8       0.045478
     37 H37          2.0190    -1.0100     1.8340 hc         1 ER8       0.045478
     38 H36          1.4040     0.6340     2.0510 hc         1 ER8       0.045478
     39 H43          3.2790     3.6500    -0.9400 h1         1 ER8       0.075200
     40 H44          1.8350     3.6500    -1.9630 h1         1 ER8       0.075200
     41 H45          2.5200     4.8790     1.6860 h1         1 ER8       0.064700
     42 H46          3.3580     5.9070     0.5000 h1         1 ER8       0.064700
     43 H47          2.4950     7.7400     2.8120 ha         1 ER8       0.136000
     44 H48          0.7250     9.4390     3.0350 ha         1 ER8       0.156000
     45 H49         -1.4760     7.5710    -0.1390 ha         1 ER8       0.164000
     46 H51         -4.6250    13.1430     0.4040 h1         1 ER8       0.079700
     47 H52         -5.2070    12.4780    -2.5070 hc         1 ER8       0.059450
     48 H53         -4.0840    13.7200    -1.9220 hc         1 ER8       0.059450
     49 H54         -6.2870    14.6860    -2.5670 h1         1 ER8       0.050200
     50 H55         -5.9410    14.9160    -0.8440 h1         1 ER8       0.050200
     51 H57         -7.1070    13.5250     0.7660 h1         1 ER8       0.050200
     52 H56         -8.2640    12.3250     0.1630 h1         1 ER8       0.050200
     53 H58         -6.4270    11.0200    -0.8190 hc         1 ER8       0.059450
     54 H59         -6.1330    11.2730     0.9110 hc         1 ER8       0.059450
     55 H39          3.1230    -1.2500    -0.7190 hc         1 ER8       0.045478
     56 H41          1.6800    -1.2500    -1.7420 hc         1 ER8       0.045478
     57 H40          1.6790    -2.1340    -0.2090 hc         1 ER8       0.045478
     58 H42          2.5920     1.1040    -1.5040 hn         1 ER8       0.309500
     59 H50         -3.5740    11.0540    -1.3880 hn         1 ER8       0.461800
     60 H60         -3.1640    11.5310     3.8860 h4         1 ER8       0.040100
@<TRIPOS>BOND
     1    29    18 1
     2    29    17 1
     3    18    19 1
     4    19    15 1
     5    17    16 1
     6    16    15 1
     7    15    28 1
     8    28    14 1
     9    14    27 ar
    10    14    30 ar
    11    27    13 ar
    12    30    31 ar
    13    13    10 1
    14    13    20 ar
    15    31    20 ar
    16    10     9 ar
    17    10    11 ar
    18     9     8 ar
    19    11    12 ar
    20    20    32 1
    21     8     7 ar
    22    12     7 ar
    23    12    25 1
    24     7     6 1
    25    26    25 2
    26    25    24 1
    27     6    24 1
    28    24     5 1
    29     5     4 1
    30     4    22 1
    31     4    23 2
    32    22     2 1
    33     1     2 1
    34     2    21 1
    35     2     3 1
    36     1    33 1
    37     1    34 1
    38     1    35 1
    39     3    36 1
    40     3    37 1
    41     3    38 1
    42     5    39 1
    43     5    40 1
    44     6    41 1
    45     6    42 1
    46     8    43 1
    47     9    44 1
    48    11    45 1
    49    15    46 1
    50    16    47 1
    51    16    48 1
    52    17    49 1
    53    17    50 1
    54    18    51 1
    55    18    52 1
    56    19    53 1
    57    19    54 1
    58    21    55 1
    59    21    56 1
    60    21    57 1
    61    22    58 1
    62    28    59 1
    63    31    60 1
@<TRIPOS>SUBSTRUCTURE
     1 ER8         1 TEMP              0 ****  ****    0 ROOT
