@<TRIPOS>MOLECULE
ER8
   60    63     1     0     0
SMALL
bcc


@<TRIPOS>ATOM
      1 C1           0.0000     0.0000     0.0000 c3         1 ER8      -0.015767
      2 C2           1.5300     0.0000     0.0000 c3         1 ER8       0.011400
      3 C3           2.0390     0.0000     1.4440 c3         1 ER8      -0.015767
      4 C6           1.6920     2.4210    -0.2300 c          1 ER8       0.553100
      5 C8           2.1960     3.6500    -0.9410 c3         1 ER8       0.012000
      6 C10          2.3960     5.5440     0.8410 c3         1 ER8       0.111300
      7 C11          1.5120     6.7060     1.2240 ca         1 ER8      -0.080300
      8 C12          1.6250     7.7030     2.1670 ca         1 ER8      -0.087000
      9 C13          0.6330     8.6570     2.2910 ca         1 ER8      -0.075000
     10 C14         -0.4870     8.6120     1.4620 cp         1 ER8      -0.182500
     11 C15         -0.6060     7.6070     0.5060 ca         1 ER8       0.028000
     12 C16          0.3970     6.6480     0.3830 ca         1 ER8      -0.175600
     13 C19         -1.5520     9.6350     1.5970 cp         1 ER8       0.540800
     14 C21         -3.1560    10.9910     0.6430 ca         1 ER8       0.726900
     15 C23         -4.8710    12.4390    -0.3820 c3         1 ER8       0.135500
     16 C24         -5.0040    13.1870    -1.7130 c3         1 ER8      -0.082900
     17 C25         -6.1600    14.1860    -1.6140 c3         1 ER8       0.220900
     18 C27         -7.3130    12.8100    -0.0220 c3         1 ER8       0.220900
     19 C28         -6.2030    11.7560    -0.0560 c3         1 ER8      -0.082900
     20 C31         -1.8810    10.1550     2.8520 ca         1 ER8      -0.359200
     21 C4           2.0400    -1.2500    -0.7200 c3         1 ER8      -0.015767
     22 N5           2.0180     1.1960    -0.6900 ns         1 ER8      -0.187900
     23 O7           0.9940     2.5320     0.7550 o          1 ER8      -0.636100
     24 N9           1.7060     4.8460    -0.2510 n          1 ER8      -0.134800
     25 C17          0.5530     5.4850    -0.5130 c          1 ER8       0.664100
     26 O18         -0.2470     5.1530    -1.3660 o          1 ER8      -0.671500
     27 N20         -2.2060    10.0770     0.5240 nb         1 ER8      -0.679000
     28 N22         -3.8160    11.4290    -0.4930 nu         1 ER8      -0.471900
     29 O26         -7.3630    13.4890    -1.2800 os         1 ER8      -0.409600
     30 N29         -3.4930    11.4970     1.8210 nb         1 ER8      -0.699000
     31 C30         -2.8820    11.1090     2.9290 ca         1 ER8       0.501200
     32 Cl3         -1.0540     9.6180     4.2810 cl         1 ER8       0.010600
     33 H34         -0.3610    -1.0070     0.1720 hc         1 ER8       0.016256
     34 H33         -0.3610     0.3540    -0.9580 hc         1 ER8       0.016256
     35 H35         -0.3610     0.6530     0.7860 hc         1 ER8       0.016256
     36 H38          3.0550     0.3760     1.4680 hc         1 ER8       0.016256
     37 H37          2.0190    -1.0100     1.8340 hc         1 ER8       0.016256
     38 H36          1.4040     0.6340     2.0510 hc         1 ER8       0.016256
     39 H43          3.2790     3.6500    -0.9400 h1         1 ER8       0.039700
     40 H44          1.8350     3.6500    -1.9630 h1         1 ER8       0.039700
     41 H45          2.5200     4.8790     1.6860 h1         1 ER8       0.028700
     42 H46          3.3580     5.9070     0.5000 h1         1 ER8       0.028700
     43 H47          2.4950     7.7400     2.8120 ha         1 ER8       0.106000
     44 H48          0.7250     9.4390     3.0350 ha         1 ER8       0.128000
     45 H49         -1.4760     7.5710    -0.1390 ha         1 ER8       0.129000
     46 H51         -4.6250    13.1430     0.4040 h1         1 ER8       0.056700
     47 H52         -5.2070    12.4780    -2.5070 hc         1 ER8       0.030450
     48 H53         -4.0840    13.7200    -1.9220 hc         1 ER8       0.030450
     49 H54         -6.2870    14.6860    -2.5670 h1         1 ER8       0.009450
     50 H55         -5.9410    14.9160    -0.8440 h1         1 ER8       0.009450
     51 H57         -7.1070    13.5250     0.7660 h1         1 ER8       0.009450
     52 H56         -8.2640    12.3250     0.1630 h1         1 ER8       0.009450
     53 H58         -6.4270    11.0200    -0.8190 hc         1 ER8       0.030450
     54 H59         -6.1330    11.2730     0.9110 hc         1 ER8       0.030450
     55 H39          3.1230    -1.2500    -0.7190 hc         1 ER8       0.016256
     56 H41          1.6800    -1.2500    -1.7420 hc         1 ER8       0.016256
     57 H40          1.6790    -2.1340    -0.2090 hc         1 ER8       0.016256
     58 H42          2.5920     1.1040    -1.5040 hn         1 ER8       0.171500
     59 H50         -3.5740    11.0540    -1.3880 hn         1 ER8       0.304800
     60 H60         -3.1640    11.5310     3.8860 h4         1 ER8      -0.010900
@<TRIPOS>BOND
     1     1     2 1   
     2     1    33 1   
     3     1    34 1   
     4     1    35 1   
     5     2     3 1   
     6     2    21 1   
     7     2    22 1   
     8     3    36 1   
     9     3    37 1   
    10     3    38 1   
    11     4     5 1   
    12     4    22 1   
    13     4    23 2   
    14     5    24 1   
    15     5    39 1   
    16     5    40 1   
    17     6     7 1   
    18     6    24 1   
    19     6    41 1   
    20     6    42 1   
    21     7     8 ar  
    22     7    12 ar  
    23     8     9 ar  
    24     8    43 1   
    25     9    10 ar  
    26     9    44 1   
    27    10    11 ar  
    28    10    13 1   
    29    11    12 ar  
    30    11    45 1   
    31    12    25 1   
    32    13    20 ar  
    33    13    27 ar  
    34    14    27 ar  
    35    14    28 1   
    36    14    30 ar  
    37    15    16 1   
    38    15    19 1   
    39    15    28 1   
    40    15    46 1   
    41    16    17 1   
    42    16    47 1   
    43    16    48 1   
    44    17    29 1   
    45    17    49 1   
    46    17    50 1   
    47    18    19 1   
    48    18    29 1   
    49    18    51 1   
    50    18    52 1   
    51    19    53 1   
    52    19    54 1   
    53    20    31 ar  
    54    20    32 1   
    55    21    55 1   
    56    21    56 1   
    57    21    57 1   
    58    22    58 1   
    59    24    25 1   
    60    25    26 2   
    61    28    59 1   
    62    30    31 ar  
    63    31    60 1   
@<TRIPOS>SUBSTRUCTURE
     1 ER8         1 TEMP              0 ****  ****    0 ROOT
