@<TRIPOS>MOLECULE
molecule
  120   119     1     0     0
SMALL
bcc


@<TRIPOS>ATOM
      1 OA           0.0000     0.0000     0.0000 oh         1 ERA      -0.592800
      2 NB           1.5510    -1.2530     2.0970 ns         1 ERA      -0.567900
      3 CAA          1.4290     0.0000     0.0000 c3         1 ERA       0.120400
      4 CAB          1.9400     0.0000     1.4430 c3         1 ERA       0.129700
      5 CAC          1.3300     1.1810     2.1990 c3         1 ERA       0.173300
      6 OAD         -0.0950     1.0640     2.1980 oh         1 ERA      -0.582800
      7 CAE          1.8320     1.1810     3.6210 c2         1 ERA      -0.203200
      8 CAF          2.5030     2.2090     4.0790 c2         1 ERA      -0.160200
      9 CAG          3.0060     2.2090     5.4990 c3         1 ERA      -0.049200
     10 CAH          4.5150     2.4590     5.5070 c3         1 ERA      -0.078400
     11 CAI          5.0250     2.4590     6.9490 c3         1 ERA      -0.082400
     12 CAJ          6.5340     2.7090     6.9550 c3         1 ERA      -0.081400
     13 CAK          7.0450     2.7070     8.3980 c3         1 ERA      -0.081400
     14 CAL          8.5540     2.9580     8.4050 c3         1 ERA      -0.081400
     15 CAM          9.0640     2.9580     9.8470 c3         1 ERA      -0.082400
     16 CAN         10.5740     3.2090     9.8540 c3         1 ERA      -0.082400
     17 CAO         11.0840     3.2080    11.2960 c3         1 ERA      -0.082400
     18 CAP         12.5930     3.4590    11.3040 c3         1 ERA      -0.082400
     19 OBA          3.3350    -2.3020     1.2970 o          1 ERA      -0.622100
     20 CBC          1.9230    -3.6380     2.6350 c3         1 ERA      -0.157400
     21 CBD          2.9590    -4.7190     2.3220 c3         1 ERA      -0.064400
     22 CBE          2.5540    -6.0270     3.0060 c3         1 ERA      -0.090400
     23 CBF          3.5910    -7.1080     2.6940 c3         1 ERA      -0.033400
     24 CBG          3.1860    -8.4150     3.3770 c3         1 ERA      -0.149200
     25 CBH          4.2070    -9.4790     3.0700 c2         1 ERA      -0.335200
     26 CBI          4.7580   -10.1600     4.0440 c2         1 ERA      -0.345200
     27 CBJ          4.2520   -10.0010     5.4540 c3         1 ERA      -0.144200
     28 CBK          3.9040   -11.3750     6.0300 c3         1 ERA      -0.034400
     29 CBL          3.3890   -11.2130     7.4620 c3         1 ERA      -0.087400
     30 CBM          3.0410   -12.5870     8.0370 c3         1 ERA      -0.081400
     31 CBN          2.5270   -12.4250     9.4700 c3         1 ERA      -0.078400
     32 CBO          2.1790   -13.7990    10.0450 c3         1 ERA      -0.048200
     33 CBP          1.6730   -13.6400    11.4550 c2         1 ERA      -0.167200
     34 CBQ          0.4880   -14.1360    11.7960 ce         1 ERA      -0.141000
     35 CBR         -0.0050   -13.9800    13.1730 ce         1 ERA      -0.145000
     36 CBS         -1.1900   -14.4760    13.5140 c2         1 ERA      -0.163200
     37 CBU         -3.0720   -13.6490    14.9000 c3         1 ERA      -0.079400
     38 CBV         -3.5860   -13.4870    16.3320 c3         1 ERA      -0.082400
     39 CBT         -1.6960   -14.3170    14.9240 c3         1 ERA      -0.048200
     40 HOA         -0.3140     0.0770    -0.8860 ho         1 ERA       0.394000
     41 HNB          0.6930    -1.3040     2.6090 hn         1 ERA       0.333500
     42 HAA          1.7900     0.8840    -0.5110 h1         1 ERA       0.031200
     43 HAAA         1.7900    -0.8840    -0.5110 h1         1 ERA       0.031200
     44 HAB          3.0190     0.0890     1.4440 h1         1 ERA       0.091700
     45 HAC          1.6160     2.1070     1.7150 h1         1 ERA       0.040700
     46 HOAD        -0.4810     1.9220     2.1460 ho         1 ERA       0.402000
     47 HAE          1.6390     0.3310     4.2630 ha         1 ERA       0.136000
     48 HAF          2.6960     3.0600     3.4360 ha         1 ERA       0.121000
     49 HAG          2.7960     1.2490     5.9550 hc         1 ERA       0.048700
     50 HAGA         2.5070     2.9910     6.0590 hc         1 ERA       0.048700
     51 HAH          5.0130     1.6760     4.9470 hc         1 ERA       0.044700
     52 HAHA         4.7240     3.4180     5.0500 hc         1 ERA       0.044700
     53 HAI          4.8160     1.4990     7.4060 hc         1 ERA       0.041200
     54 HAIA         4.5270     3.2410     7.5080 hc         1 ERA       0.041200
     55 HAJ          6.7430     3.6690     6.4990 hc         1 ERA       0.042200
     56 HAJA         7.0320     1.9270     6.3950 hc         1 ERA       0.042200
     57 HAK          6.5460     3.4890     8.9580 hc         1 ERA       0.040700
     58 HAKA         6.8360     1.7470     8.8530 hc         1 ERA       0.040700
     59 HAL          9.0530     2.1770     7.8450 hc         1 ERA       0.041200
     60 HALA         8.7630     3.9190     7.9490 hc         1 ERA       0.041200
     61 HAM          8.5660     3.7400    10.4070 hc         1 ERA       0.040700
     62 HAMA         8.8560     1.9970    10.3040 hc         1 ERA       0.040700
     63 HAN         11.0720     2.4270     9.2940 hc         1 ERA       0.041200
     64 HANA        10.7820     4.1690     9.3980 hc         1 ERA       0.041200
     65 HAO         10.8750     2.2480    11.7530 hc         1 ERA       0.040700
     66 HAOA        10.5850     3.9900    11.8560 hc         1 ERA       0.040700
     67 HAP         13.0920     2.6770    10.7440 hc         1 ERA       0.040700
     68 HAPA        12.8020     4.4190    10.8480 hc         1 ERA       0.040700
     69 HBC          0.9530    -3.9520     2.2690 hc         1 ERA       0.059700
     70 HBCA         1.8730    -3.4850     3.7060 hc         1 ERA       0.059700
     71 HBD          3.0090    -4.8720     1.2510 hc         1 ERA       0.061200
     72 HBDA         3.9300    -4.4050     2.6880 hc         1 ERA       0.061200
     73 HBE          2.5040    -5.8740     4.0780 hc         1 ERA       0.038200
     74 HBEA         1.5840    -6.3410     2.6410 hc         1 ERA       0.038200
     75 HBF          4.5610    -6.7940     3.0590 hc         1 ERA       0.060700
     76 HBFA         3.6410    -7.2610     1.6220 hc         1 ERA       0.060700
     77 HBG          2.2160    -8.7290     3.0120 hc         1 ERA       0.033200
     78 HBGA         3.1360    -8.2620     4.4490 hc         1 ERA       0.033200
     79 HBH          3.1650    -9.7330     3.2210 ha         1 ERA       0.331000
     80 HBI          5.1080    -9.3510     4.6750 ha         1 ERA       0.330000
     81 HBJ          5.0200    -9.5380     6.0630 hc         1 ERA       0.033200
     82 HBJA         3.3680    -9.3760     5.4510 hc         1 ERA       0.033200
     83 HBK          3.1360   -11.8370     5.4210 hc         1 ERA       0.058200
     84 HBKA         4.7880   -12.0000     6.0330 hc         1 ERA       0.058200
     85 HBL          4.1570   -10.7510     8.0710 hc         1 ERA       0.040700
     86 HBLA         2.5050   -10.5880     7.4600 hc         1 ERA       0.040700
     87 HBM          2.2730   -13.0490     7.4280 hc         1 ERA       0.045200
     88 HBMA         3.9250   -13.2130     8.0390 hc         1 ERA       0.045200
     89 HBN          3.2950   -11.9630    10.0780 hc         1 ERA       0.043700
     90 HBNA         1.6430   -11.7990     9.4680 hc         1 ERA       0.043700
     91 HBO          3.0630   -14.4250    10.0470 hc         1 ERA       0.048700
     92 HBOA         1.4110   -14.2610     9.4360 hc         1 ERA       0.048700
     93 HBP          2.2760   -13.1210    12.1910 ha         1 ERA       0.126000
     94 HBQ         -0.1140   -14.6540    11.0600 ha         1 ERA       0.126000
     95 HBR          0.5970   -13.4610    13.9090 ha         1 ERA       0.126000
     96 HBS         -1.7930   -14.9950    12.7780 ha         1 ERA       0.126000
     97 HBU         -2.8890   -12.6720    14.4690 hc         1 ERA       0.043700
     98 HBUA        -3.8140   -14.1720    14.3080 hc         1 ERA       0.043700
     99 HBV         -2.8950   -12.8710    16.8960 hc         1 ERA       0.041200
    100 HBVA        -3.6650   -14.4610    16.8000 hc         1 ERA       0.041200
    101 CBW         -4.9630   -12.8190    16.3070 c3         1 ERA      -0.083400
    102 HBT         -1.7750   -15.2910    15.3920 hc         1 ERA       0.047200
    103 HBTA        -1.0060   -13.7010    15.4880 hc         1 ERA       0.047200
    104 CBX         -5.4770   -12.6580    17.7400 c3         1 ERA      -0.092100
    105 CAQ         13.1030     3.4580    12.7460 c3         1 ERA      -0.081400
    106 CAR         14.6130     3.7080    12.7520 c3         1 ERA      -0.084400
    107 CAS         15.1240     3.7080    14.1960 c3         1 ERA      -0.092100
    108 HBX         -6.4610   -12.2060    17.7220 hc         1 ERA       0.032700
    109 HBX1        -4.7990   -12.0230    18.2970 hc         1 ERA       0.032700
    110 HBX2        -5.5340   -13.6300    18.2150 hc         1 ERA       0.032700
    111 HAQ         12.6050     4.2400    13.3060 hc         1 ERA       0.040700
    112 HAQA        12.8940     2.4980    13.2030 hc         1 ERA       0.040700
    113 HAR         14.8220     4.6680    12.2960 hc         1 ERA       0.039700
    114 HARA        15.1110     2.9260    12.1930 hc         1 ERA       0.039700
    115 HAS         14.6290     4.4930    14.7540 hc         1 ERA       0.032367
    116 HAS1        16.1930     3.8800    14.2010 hc         1 ERA       0.032367
    117 HAS2        14.9110     2.7490    14.6540 hc         1 ERA       0.032367
    118 HBW         -5.6530   -13.4350    15.7430 hc         1 ERA       0.040200
    119 HBWA        -4.8840   -11.8450    15.8400 hc         1 ERA       0.040200
    120 CBB          2.3220    -2.3500     1.9610 c          1 ERA       0.656100
@<TRIPOS>BOND
     1     1     3 1
     2     1    40 1
     3     2     4 1
     4     2   120 1
     5     2    41 1
     6     3     4 1
     7     3    42 1
     8     3    43 1
     9     4     5 1
    10     4    44 1
    11     5     6 1
    12     5     7 1
    13     5    45 1
    14     6    46 1
    15     7     8 2
    16     7    47 1
    17     8     9 1
    18     8    48 1
    19     9    10 1
    20     9    49 1
    21     9    50 1
    22    10    11 1
    23    10    51 1
    24    10    52 1
    25    11    12 1
    26    11    53 1
    27    11    54 1
    28    12    13 1
    29    12    55 1
    30    12    56 1
    31    13    14 1
    32    13    57 1
    33    13    58 1
    34    14    15 1
    35    14    59 1
    36    14    60 1
    37    15    16 1
    38    15    61 1
    39    15    62 1
    40    16    17 1
    41    16    63 1
    42    16    64 1
    43    17    18 1
    44    17    65 1
    45    17    66 1
    46    18    67 1
    47    18    68 1
    48    18   105 1
    49    19   120 2
    50   120    20 1
    51    20    21 1
    52    20    69 1
    53    20    70 1
    54    21    22 1
    55    21    71 1
    56    21    72 1
    57    22    23 1
    58    22    73 1
    59    22    74 1
    60    23    24 1
    61    23    75 1
    62    23    76 1
    63    24    25 1
    64    24    77 1
    65    24    78 1
    66    25    26 2
    67    25    79 1
    68    26    27 1
    69    26    80 1
    70    27    28 1
    71    27    81 1
    72    27    82 1
    73    28    29 1
    74    28    83 1
    75    28    84 1
    76    29    30 1
    77    29    85 1
    78    29    86 1
    79    30    31 1
    80    30    87 1
    81    30    88 1
    82    31    32 1
    83    31    89 1
    84    31    90 1
    85    32    33 1
    86    32    91 1
    87    32    92 1
    88    33    34 2
    89    33    93 1
    90    34    35 1
    91    34    94 1
    92    35    36 2
    93    35    95 1
    94    36    39 1
    95    36    96 1
    96    37    38 1
    97    37    39 1
    98    37    97 1
    99    37    98 1
   100    38   101 1
   101    38    99 1
   102    38   100 1
   103   101   104 1
   104    39   102 1
   105    39   103 1
   106   104   108 1
   107   104   109 1
   108   104   110 1
   109   105   106 1
   110   105   111 1
   111   105   112 1
   112   106   107 1
   113   106   113 1
   114   106   114 1
   115   107   115 1
   116   107   116 1
   117   107   117 1
   118   101   118 1
   119   101   119 1
@<TRIPOS>SUBSTRUCTURE
     1 ERA         1 TEMP              0 ****  ****    0 ROOT
