@<TRIPOS>MOLECULE
ERA
  120   126     1     0     0
SMALL
bcc


@<TRIPOS>ATOM
      1 OA           0.0000     0.0000     0.0000 oh         1 ERA      -0.309000
      2 NB           1.5510    -1.2530     2.0970 ns         1 ERA       0.028000
      3 CAA          1.4290     0.0000     0.0000 c3         1 ERA       0.046000
      4 CAB          1.9400     0.0000     1.4430 c3         1 ERA      -0.088000
      5 CAC          1.3300     1.1810     2.1990 DU         1 ERA       0.154000
      6 OAD         -0.0950     1.0640     2.1980 oh         1 ERA      -0.302000
      7 CAE          1.8320     1.1810     3.6210 c2         1 ERA      -0.133000
      8 CAF          2.5030     2.2090     4.0790 c2         1 ERA      -0.159000
      9 CAG          3.0060     2.2090     5.4990 DU         1 ERA       0.035000
     10 CAH          4.5150     2.4590     5.5070 c3         1 ERA      -0.140000
     11 CAI          5.0250     2.4590     6.9490 c3         1 ERA      -0.111000
     12 CAJ          6.5340     2.7090     6.9550 c3         1 ERA      -0.107000
     13 CAK          7.0450     2.7070     8.3980 c3         1 ERA      -0.108000
     14 CAL          8.5540     2.9580     8.4050 c3         1 ERA      -0.108000
     15 CAM          9.0640     2.9580     9.8470 c3         1 ERA      -0.108000
     16 CAN         10.5740     3.2090     9.8540 c3         1 ERA      -0.108000
     17 CAO         11.0840     3.2080    11.2960 c3         1 ERA      -0.108000
     18 CAP         12.5930     3.4590    11.3040 c3         1 ERA      -0.108000
     19 OBA          3.3350    -2.3020     1.2970 o          1 ERA      -0.424000
     20 CBC          1.9230    -3.6380     2.6350 c3         1 ERA      -0.126000
     21 CBD          2.9590    -4.7190     2.3220 c3         1 ERA      -0.094000
     22 CBE          2.5540    -6.0270     3.0060 c3         1 ERA      -0.112000
     23 CBF          3.5910    -7.1080     2.6940 c3         1 ERA      -0.101000
     24 CBG          3.1860    -8.4150     3.3770 c3         1 ERA      -0.089000
     25 CBH          4.2070    -9.4790     3.0700 c2         1 ERA      -0.151000
     26 CBI          4.7580   -10.1600     4.0440 c2         1 ERA      -0.155000
     27 CBJ          4.2520   -10.0010     5.4540 c3         1 ERA      -0.088000
     28 CBK          3.9040   -11.3750     6.0300 c3         1 ERA      -0.103000
     29 CBL          3.3890   -11.2130     7.4620 c3         1 ERA      -0.107000
     30 CBM          3.0410   -12.5870     8.0370 c3         1 ERA      -0.114000
     31 CBN          2.5270   -12.4250     9.4700 c3         1 ERA      -0.099000
     32 CBO          2.1790   -13.7990    10.0450 DU         1 ERA      -0.050000
     33 CBP          1.6730   -13.6400    11.4550 c2         1 ERA      -0.473000
     34 CBQ          0.4880   -14.1360    11.7960 c3         1 ERA      -0.087000
     35 CBR         -0.0050   -13.9800    13.1730 c3         1 ERA      -0.087000
     36 CBS         -1.1900   -14.4760    13.5140 c2         1 ERA      -0.474000
     37 CBU         -3.0720   -13.6490    14.9000 c3         1 ERA      -0.099000
     38 CBV         -3.5860   -13.4870    16.3320 c3         1 ERA      -0.115000
     39 CBT         -1.6960   -14.3170    14.9240 DU         1 ERA      -0.050000
     40 HOA         -0.3140    -0.0640    -0.8870 ho         1 ERA       0.183000
     41 HNB          0.6970    -1.3020     2.6160 hn         1 ERA       0.102000
     42 HAA          1.7900     0.8840    -0.5110 h1         1 ERA       0.037000
     43 HAAA         1.7900    -0.8840    -0.5110 h1         1 ERA       0.037000
     44 HAB          3.0190     0.0890     1.4440 h1         1 ERA       0.114000
     45 HAC          1.6160     2.1070     1.7150 ha         1 ERA       0.076000
     46 HOAD        -0.4820     1.9220     2.1470 ho         1 ERA       0.197000
     47 HAE          0.9540     1.7180     3.2830 DU         1 ERA       0.026000
     48 HAF          1.8860     2.4120     4.9460 DU         1 ERA       0.027000
     49 HAG          2.5070     2.9910     6.0590 ha         1 ERA       0.055000
     50 HAGA         2.7960     1.2490     5.9550 ha         1 ERA       0.055000
     51 HAH          5.0130     1.6760     4.9470 hc         1 ERA       0.065000
     52 HAHA         4.7240     3.4180     5.0500 hc         1 ERA       0.065000
     53 HAI          4.5270     3.2410     7.5080 hc         1 ERA       0.052000
     54 HAIA         4.8160     1.4990     7.4060 hc         1 ERA       0.052000
     55 HAJ          6.7430     3.6690     6.4990 hc         1 ERA       0.055500
     56 HAJA         7.0320     1.9270     6.3950 hc         1 ERA       0.055500
     57 HAK          6.5460     3.4890     8.9580 hc         1 ERA       0.053500
     58 HAKA         6.8360     1.7470     8.8530 hc         1 ERA       0.053500
     59 HAL          8.7630     3.9190     7.9490 hc         1 ERA       0.054500
     60 HALA         9.0530     2.1770     7.8450 hc         1 ERA       0.054500
     61 HAM          8.8560     1.9970    10.3040 hc         1 ERA       0.053500
     62 HAMA         8.5660     3.7400    10.4070 hc         1 ERA       0.053500
     63 HAN         10.7820     4.1690     9.3980 hc         1 ERA       0.054000
     64 HANA        11.0720     2.4270     9.2940 hc         1 ERA       0.054000
     65 HAO         10.8750     2.2480    11.7530 hc         1 ERA       0.054000
     66 HAOA        10.5850     3.9900    11.8560 hc         1 ERA       0.054000
     67 HAP         12.8020     4.4190    10.8480 hc         1 ERA       0.054000
     68 HAPA        13.0920     2.6770    10.7440 hc         1 ERA       0.054000
     69 HBC          1.8730    -3.4850     3.7060 hc         1 ERA       0.066000
     70 HBCA         0.9530    -3.9520     2.2690 hc         1 ERA       0.066000
     71 HBD          3.9300    -4.4050     2.6880 hc         1 ERA       0.069500
     72 HBDA         3.0090    -4.8720     1.2510 hc         1 ERA       0.069500
     73 HBE          1.5840    -6.3410     2.6410 hc         1 ERA       0.050500
     74 HBEA         2.5040    -5.8740     4.0780 hc         1 ERA       0.050500
     75 HBF          4.5610    -6.7940     3.0590 hc         1 ERA       0.057000
     76 HBFA         3.6400    -7.2610     1.6220 hc         1 ERA       0.057000
     77 HBG          3.1360    -8.2620     4.4490 hc         1 ERA       0.065500
     78 HBGA         2.2160    -8.7290     3.0110 hc         1 ERA       0.065500
     79 HBH          4.5730    -9.5960     2.0570 ha         1 ERA       0.103000
     80 HBI          5.4930   -10.9250     3.8200 ha         1 ERA       0.102000
     81 HBJ          5.0200    -9.5390     6.0630 hc         1 ERA       0.066500
     82 HBJA         3.3680    -9.3750     5.4510 hc         1 ERA       0.066500
     83 HBK          3.1360   -11.8370     5.4210 hc         1 ERA       0.054500
     84 HBKA         4.7880   -12.0000     6.0330 hc         1 ERA       0.054500
     85 HBL          2.5050   -10.5880     7.4600 hc         1 ERA       0.055000
     86 HBLA         4.1570   -10.7510     8.0710 hc         1 ERA       0.055000
     87 HBM          2.2730   -13.0490     7.4280 hc         1 ERA       0.053500
     88 HBMA         3.9250   -13.2130     8.0390 hc         1 ERA       0.053500
     89 HBN          3.2950   -11.9630    10.0780 hc         1 ERA       0.062000
     90 HBNA         1.6430   -11.7990     9.4680 hc         1 ERA       0.062000
     91 HBO          1.4110   -14.2610     9.4360 ha         1 ERA       0.055000
     92 HBOA         3.0630   -14.4240    10.0470 ha         1 ERA       0.055000
     93 HBP          2.1040   -14.5510    11.0590 DU         1 ERA       0.224000
     94 HBQ          0.0580   -13.2230    12.1920 DU         1 ERA       0.254500
     95 HBR         -0.3360   -13.3810    12.3340 DU         1 ERA       0.254500
     96 HBS         -0.8610   -15.0770    14.3540 DU         1 ERA       0.224000
     97 HBU         -2.9790   -12.6740    14.4370 hc         1 ERA       0.062000
     98 HBUA        -3.7700   -14.2540    14.3330 hc         1 ERA       0.062000
     99 HBV         -2.8950   -12.8710    16.8960 hc         1 ERA       0.053500
    100 HBVA        -3.6650   -14.4610    16.8000 hc         1 ERA       0.053500
    101 CBW         -4.9630   -12.8190    16.3070 c3         1 ERA      -0.105000
    102 HBT         -1.7750   -15.2910    15.3920 ha         1 ERA       0.054500
    103 HBTA        -1.0060   -13.7010    15.4880 ha         1 ERA       0.054500
    104 CBX         -5.4770   -12.6580    17.7400 c3         1 ERA      -0.112000
    105 CAQ         13.1030     3.4580    12.7460 c3         1 ERA      -0.109000
    106 CAR         14.6130     3.7080    12.7520 c3         1 ERA      -0.107000
    107 CAS         15.1240     3.7080    14.1960 c3         1 ERA      -0.112000
    108 HBX         -5.5530   -13.6310    18.2080 hc         1 ERA       0.039667
    109 HBX1        -6.4530   -12.1880    17.7230 hc         1 ERA       0.039667
    110 HBX2        -4.7880   -12.0390    18.3030 hc         1 ERA       0.039667
    111 HAQ         12.6050     4.2400    13.3060 hc         1 ERA       0.054000
    112 HAQA        12.8940     2.4980    13.2030 hc         1 ERA       0.054000
    113 HAR         15.1110     2.9260    12.1930 hc         1 ERA       0.051000
    114 HARA        14.8220     4.6680    12.2960 hc         1 ERA       0.051000
    115 HAS         14.9240     2.7440    14.6490 hc         1 ERA       0.039333
    116 HAS1        14.6170     4.4830    14.7580 hc         1 ERA       0.039333
    117 HAS2        16.1900     3.8950    14.2020 hc         1 ERA       0.039333
    118 HBW         -5.6530   -13.4350    15.7430 hc         1 ERA       0.052500
    119 HBWA        -4.8840   -11.8450    15.8400 hc         1 ERA       0.052500
    120 CBB          2.3220    -2.3500     1.9610 c2         1 ERA       0.213000
@<TRIPOS>BOND
     1     1     3 1   
     2     1    40 1   
     3     2     4 1   
     4     2    41 1   
     5     2   120 1   
     6     3     4 1   
     7     3    42 1   
     8     3    43 1   
     9     4     5 1   
    10     4    44 1   
    11     5     6 1   
    12     5     7 1   
    13     5    45 1   
    14     5    47 1   
    15     6    46 1   
    16     7     8 1   
    17     7    47 1   
    18     8     9 1   
    19     8    48 1   
    20     9    10 1   
    21     9    48 1   
    22     9    49 1   
    23     9    50 1   
    24    10    11 1   
    25    10    51 1   
    26    10    52 1   
    27    11    12 1   
    28    11    53 1   
    29    11    54 1   
    30    12    13 1   
    31    12    55 1   
    32    12    56 1   
    33    13    14 1   
    34    13    57 1   
    35    13    58 1   
    36    14    15 1   
    37    14    59 1   
    38    14    60 1   
    39    15    16 1   
    40    15    61 1   
    41    15    62 1   
    42    16    17 1   
    43    16    63 1   
    44    16    64 1   
    45    17    18 1   
    46    17    65 1   
    47    17    66 1   
    48    18    67 1   
    49    18    68 1   
    50    18   105 1   
    51    19   120 1   
    52    20    21 1   
    53    20    69 1   
    54    20    70 1   
    55    20   120 1   
    56    21    22 1   
    57    21    71 1   
    58    21    72 1   
    59    22    23 1   
    60    22    73 1   
    61    22    74 1   
    62    23    24 1   
    63    23    75 1   
    64    23    76 1   
    65    24    25 1   
    66    24    77 1   
    67    24    78 1   
    68    25    26 1   
    69    25    79 1   
    70    26    27 1   
    71    26    80 1   
    72    27    28 1   
    73    27    81 1   
    74    27    82 1   
    75    28    29 1   
    76    28    83 1   
    77    28    84 1   
    78    29    30 1   
    79    29    85 1   
    80    29    86 1   
    81    30    31 1   
    82    30    87 1   
    83    30    88 1   
    84    31    32 1   
    85    31    89 1   
    86    31    90 1   
    87    32    33 1   
    88    32    91 1   
    89    32    92 1   
    90    32    93 1   
    91    33    34 1   
    92    33    93 1   
    93    34    35 1   
    94    34    94 1   
    95    34    95 1   
    96    35    36 1   
    97    35    94 1   
    98    35    95 1   
    99    36    39 1   
   100    36    96 1   
   101    37    38 1   
   102    37    39 1   
   103    37    97 1   
   104    37    98 1   
   105    38    99 1   
   106    38   100 1   
   107    38   101 1   
   108    39    96 1   
   109    39   102 1   
   110    39   103 1   
   111    94    95 1   
   112   101   104 1   
   113   101   118 1   
   114   101   119 1   
   115   104   108 1   
   116   104   109 1   
   117   104   110 1   
   118   105   106 1   
   119   105   111 1   
   120   105   112 1   
   121   106   107 1   
   122   106   113 1   
   123   106   114 1   
   124   107   115 1   
   125   107   116 1   
   126   107   117 1   
@<TRIPOS>SUBSTRUCTURE
     1 ERA         1 TEMP              0 ****  ****    0 ROOT
