@<TRIPOS>MOLECULE
ERC
   59    61     1     0     0
SMALL
bcc


@<TRIPOS>ATOM
      1 C1           0.0000     0.0000     0.0000 c          1 ERC       0.584700
      2 N1           1.3450     0.0000     0.0000 ns         1 ERC       0.057900
      3 O1          -0.5940    -0.0010    -1.0640 o          1 ERC      -0.689500
      4 S1          -5.2950    12.0940    10.1160 sh         1 ERC      -0.401900
      5 C2          -0.7400    -0.0050     1.2020 cc         1 ERC      -0.200200
      6 N2           0.2670     1.4060     6.6000 n7         1 ERC      -0.596200
      7 O2           4.1340    -0.0010     0.0100 oh         1 ERC      -0.492100
      8 C3          -0.1010    -0.0110     2.3980 cd         1 ERC      -0.031200
      9 O3           2.1750    -0.5970     5.9370 oh         1 ERC      -0.588800
     10 C4           1.3630    -0.0110     2.4090 ca         1 ERC      -0.097800
     11 O4           0.1830     6.8850    10.6830 os         1 ERC      -0.292900
     12 C5           2.0530     0.0000     1.1840 ca         1 ERC      -0.096400
     13 O5          -2.2310     7.9590     9.9030 os         1 ERC      -0.288900
     14 C6           3.4500     0.0000     1.1850 ca         1 ERC       0.084100
     15 C7           4.1320    -0.0000     2.3870 ca         1 ERC      -0.119000
     16 C8           3.4440    -0.0000     3.5920 ca         1 ERC      -0.086000
     17 C9           2.0770    -0.0170     3.6120 ca         1 ERC      -0.092300
     18 C10          1.3420    -0.0230     4.9270 c3         1 ERC       0.242400
     19 C11          0.9840     1.4120     5.3180 c3         1 ERC       0.134800
     20 C12         -0.0940     2.7720     7.0070 c3         1 ERC       0.145800
     21 C13         -0.8380     2.7250     8.3440 c3         1 ERC       0.033900
     22 C14         -1.2080     4.1250     8.7620 ca         1 ERC      -0.089300
     23 C15         -2.4190     4.6630     8.3710 ca         1 ERC      -0.094000
     24 C16         -2.7630     5.9470     8.7510 ca         1 ERC      -0.176000
     25 C17         -1.8930     6.6960     9.5270 ca         1 ERC       0.117100
     26 C18         -0.6750     6.1530     9.9220 ca         1 ERC       0.122100
     27 C19         -0.3380     4.8650     9.5410 ca         1 ERC      -0.174000
     28 C20          1.4160     6.2640    11.0500 c3         1 ERC       0.241700
     29 C21         -3.4970     8.4510     9.4610 c3         1 ERC       0.201400
     30 C22         -3.6990     9.8770     9.9780 c3         1 ERC      -0.014400
     31 C23         -5.0550    10.4040     9.5040 c3         1 ERC       0.107700
     32 HN1          1.8380     0.0000    -0.8710 hn         1 ERC       0.186500
     33 HS1         -6.4710    12.5510     9.7050 hs         1 ERC       0.186800
     34 H2          -1.8230    -0.0050     1.1680 ha         1 ERC       0.134000
     35 HN2          0.8440     0.9900     7.3030 hn         1 ERC       0.265800
     36 HO2          4.6690    -0.7760    -0.0410 ho         1 ERC       0.408000
     37 H3          -0.6620    -0.0150     3.3240 ha         1 ERC       0.121000
     38 HO3          1.9090    -1.4880     6.0950 ho         1 ERC       0.397000
     39 H7           5.2150     0.0130     2.3880 ha         1 ERC       0.114000
     40 H8           3.9940    -0.0010     4.5240 ha         1 ERC       0.127000
     41 H10          0.4350    -0.6080     4.8310 h1         1 ERC       0.019700
     42 H11          1.8910     1.9970     5.4150 h1         1 ERC       0.019700
     43 H11A         0.3530     1.8490     4.5530 h1         1 ERC       0.019700
     44 H12          0.8050     3.3660     7.1150 h1         1 ERC       0.010200
     45 H12A        -0.7330     3.2170     6.2540 h1         1 ERC       0.010200
     46 H13         -1.7370     2.1300     8.2360 hc         1 ERC       0.021700
     47 H13A        -0.1990     2.2800     9.0970 hc         1 ERC       0.021700
     48 H15         -3.1000     4.0790     7.7640 ha         1 ERC       0.108000
     49 H16         -3.7130     6.3670     8.4430 ha         1 ERC       0.120000
     50 H19          0.5870     4.4210     9.8910 ha         1 ERC       0.125000
     51 H20          2.0070     6.9550    11.6390 h1         1 ERC      -0.003633
     52 H20A         1.2130     5.3740    11.6350 h1         1 ERC      -0.003633
     53 H20B         1.9630     5.9910    10.1560 h1         1 ERC      -0.003633
     54 H21         -4.2850     7.8140     9.8440 h1         1 ERC       0.000700
     55 H21A        -3.5270     8.4520     8.3780 h1         1 ERC       0.000700
     56 H22         -3.6700     9.8770    11.0600 hc         1 ERC       0.040700
     57 H22A        -2.9110    10.5140     9.5950 hc         1 ERC       0.040700
     58 H23         -5.0850    10.4040     8.4210 h1         1 ERC       0.028700
     59 H23A        -5.8440     9.7660     9.8860 h1         1 ERC       0.028700
@<TRIPOS>BOND
     1     1     2 1   
     2     1     3 2   
     3     1     5 1   
     4     2    12 1   
     5     2    32 1   
     6     4    31 1   
     7     4    33 1   
     8     5     8 2   
     9     5    34 1   
    10     6    19 1   
    11     6    20 1   
    12     6    35 1   
    13     7    14 1   
    14     7    36 1   
    15     8    10 1   
    16     8    37 1   
    17     9    18 1   
    18     9    38 1   
    19    10    12 ar  
    20    10    17 ar  
    21    11    26 1   
    22    11    28 1   
    23    12    14 ar  
    24    13    25 1   
    25    13    29 1   
    26    14    15 ar  
    27    15    16 ar  
    28    15    39 1   
    29    16    17 ar  
    30    16    40 1   
    31    17    18 1   
    32    18    19 1   
    33    18    41 1   
    34    19    42 1   
    35    19    43 1   
    36    20    21 1   
    37    20    44 1   
    38    20    45 1   
    39    21    22 1   
    40    21    46 1   
    41    21    47 1   
    42    22    23 ar  
    43    22    27 ar  
    44    23    24 ar  
    45    23    48 1   
    46    24    25 ar  
    47    24    49 1   
    48    25    26 ar  
    49    26    27 ar  
    50    27    50 1   
    51    28    51 1   
    52    28    52 1   
    53    28    53 1   
    54    29    30 1   
    55    29    54 1   
    56    29    55 1   
    57    30    31 1   
    58    30    56 1   
    59    30    57 1   
    60    31    58 1   
    61    31    59 1   
@<TRIPOS>SUBSTRUCTURE
     1 ERC         1 TEMP              0 ****  ****    0 ROOT
