@<TRIPOS>MOLECULE
molecule
   33    35     1     0     0
SMALL
bcc


@<TRIPOS>ATOM
      1 O13          0.0000     0.0000     0.0000 o          1 ERD      -0.498100
      2 C9           1.2260     0.0000     0.0000 c          1 ERD       0.577700
      3 C10          2.0350     0.0000     1.2710 c3         1 ERD      -0.202400
      4 C11          3.3740     0.6860     1.0090 c3         1 ERD       0.193400
      5 C14          4.2300     0.7060     2.2580 ca         1 ERD      -0.094300
      6 C15          4.6590     1.9210     2.7910 ca         1 ERD      -0.101000
      7 C16          5.4480     1.9380     3.9410 ca         1 ERD      -0.157000
      8 C17          5.8070     0.7410     4.5570 ca         1 ERD       0.101100
      9 O24          6.5790     0.7710     5.6810 oh         1 ERD      -0.511100
     10 C18          5.3790    -0.4760     4.0250 ca         1 ERD       0.088100
     11 O23          5.7230    -1.6510     4.6200 oh         1 ERD      -0.510100
     12 C19          4.5890    -0.4930     2.8750 ca         1 ERD      -0.119000
     13 O12          4.1020     0.0170    -0.0310 os         1 ERD      -0.304900
     14 C4           3.3940    -0.0830    -1.2000 ca         1 ERD       0.194100
     15 C3           1.9970    -0.0730    -1.2580 ca         1 ERD      -0.271600
     16 C5           4.1360    -0.2290    -2.3730 ca         1 ERD      -0.214000
     17 C6           3.4820    -0.3320    -3.6010 ca         1 ERD       0.183100
     18 O29          4.2050    -0.4630    -4.7470 oh         1 ERD      -0.520100
     19 C1           2.0880    -0.3000    -3.6590 ca         1 ERD      -0.266000
     20 C2           1.3400    -0.1740    -2.4870 ca         1 ERD       0.220100
     21 O30         -0.0170    -0.1640    -2.5990 oh         1 ERD      -0.484100
     22 H101         1.4970     0.5390     2.0420 hc         1 ERD       0.088700
     23 H102         2.2090    -1.0210     1.5890 hc         1 ERD       0.088700
     24 H11          3.1840     1.7060     0.6970 h1         1 ERD       0.058700
     25 H15          4.3800     2.8510     2.3110 ha         1 ERD       0.139000
     26 H16          5.7820     2.8820     4.3550 ha         1 ERD       0.147000
     27 HO24         6.0640     1.0800     6.4070 ho         1 ERD       0.425000
     28 HO23         6.4610    -2.0280     4.1690 ho         1 ERD       0.426000
     29 H19          4.2560    -1.4370     2.4610 ha         1 ERD       0.151000
     30 H5           5.2180    -0.2340    -2.3340 ha         1 ERD       0.162000
     31 HO29         4.2970    -1.3780    -4.9580 ho         1 ERD       0.430000
     32 H1           1.5840    -0.3800    -4.6150 ha         1 ERD       0.152000
     33 HO30        -0.2770     0.5060    -3.2100 ho         1 ERD       0.429000
@<TRIPOS>BOND
     1     1     2 2
     2     2    15 1
     3     2     3 1
     4     3     4 1
     5     3    22 1
     6     3    23 1
     7     4    13 1
     8     4     5 1
     9     4    24 1
    10     5     6 ar
    11     5    12 ar
    12     6     7 ar
    13     6    25 1
    14     7     8 ar
    15     7    26 1
    16     8    10 ar
    17     8     9 1
    18     9    27 1
    19    10    12 ar
    20    10    11 1
    21    11    28 1
    22    12    29 1
    23    13    14 1
    24    14    15 ar
    25    14    16 ar
    26    15    20 ar
    27    16    17 ar
    28    16    30 1
    29    17    19 ar
    30    17    18 1
    31    18    31 1
    32    19    20 ar
    33    19    32 1
    34    20    21 1
    35    21    33 1
@<TRIPOS>SUBSTRUCTURE
     1 ERD         1 TEMP              0 ****  ****    0 ROOT
