@<TRIPOS>MOLECULE
ERD
   33    35     1     0     0
SMALL
bcc


@<TRIPOS>ATOM
      1 O13        -0.0300    0.4550   -0.0180 o         1 ERD     -0.512100
      2 C9          1.1910    0.2720   -0.0390 c         1 ERD      0.594700
      3 C10         1.9960    0.2370    1.2330 c3        1 ERD     -0.212400
      4 C11         3.3750    0.8450    1.0240 c3        1 ERD      0.200400
      5 C14         4.2180    0.7300    2.2580 ca        1 ERD     -0.093300
      6 C15         4.3220    1.8310    3.1140 ca        1 ERD     -0.116000
      7 C16         5.0780    1.7470    4.2810 ca        1 ERD     -0.171000
      8 C17         5.7400    0.5550    4.5890 ca        1 ERD      0.049100
      9 O24         6.5080    0.3810    5.7210 oh        1 ERD     -0.515100
     10 C18         5.6450   -0.5570    3.7240 ca        1 ERD      0.109100
     11 O23         6.2730   -1.7530    3.9730 oh        1 ERD     -0.491100
     12 C19         4.8790   -0.4640    2.5550 ca        1 ERD     -0.103000
     13 O12         4.0920    0.1660   -0.0330 os        1 ERD     -0.315900
     14 C4          3.3830   -0.0090   -1.2000 ca        1 ERD      0.230100
     15 C3          1.9740    0.0420   -1.2560 ca        1 ERD     -0.306600
     16 C5          4.1680   -0.2760   -2.3290 ca        1 ERD     -0.238000
     17 C6          3.5180   -0.4930   -3.5510 ca        1 ERD      0.221100
     18 O29         4.3240   -0.7540   -4.6290 oh        1 ERD     -0.485100
     19 C1          2.1220   -0.4350   -3.6610 ca        1 ERD     -0.358000
     20 C2          1.3630   -0.1660   -2.5120 ca        1 ERD      0.251100
     21 O30        -0.0020   -0.1060   -2.5560 oh        1 ERD     -0.455100
     22 H101        2.0940   -0.8340    1.5560 hc        1 ERD      0.089200
     23 H102        1.4610    0.7950    2.0450 hc        1 ERD      0.089200
     24 H11         3.2760    1.9250    0.7140 h1        1 ERD      0.065700
     25 H15         3.8070    2.7720    2.8690 ha        1 ERD      0.139000
     26 H16         5.1570    2.6110    4.9560 ha        1 ERD      0.138000
     27 HO24        6.5100    1.2160    6.2100 ho        1 ERD      0.431000
     28 HO23        6.7760   -1.6610    4.7980 ho        1 ERD      0.438000
     29 H19         4.8160   -1.3270    1.8750 ha        1 ERD      0.167000
     30 H5          5.2630   -0.3160   -2.2570 ha        1 ERD      0.174000
     31 HO29        3.7600   -0.8800   -5.4070 ho        1 ERD      0.426000
     32 H1          1.6290   -0.5990   -4.6280 ha        1 ERD      0.141000
     33 HO30       -0.2840   -0.2760   -3.4690 ho        1 ERD      0.421000
@<TRIPOS>BOND
     1    1    2 2   
     2    2    3 1   
     3    2   15 1   
     4    3    4 1   
     5    3   22 1   
     6    3   23 1   
     7    4    5 1   
     8    4   13 1   
     9    4   24 1   
    10    5    6 ar  
    11    5   12 ar  
    12    6    7 ar  
    13    6   25 1   
    14    7    8 ar  
    15    7   26 1   
    16    8    9 1   
    17    8   10 ar  
    18    9   27 1   
    19   10   11 1   
    20   10   12 ar  
    21   11   28 1   
    22   12   29 1   
    23   13   14 1   
    24   14   15 ar  
    25   14   16 ar  
    26   15   20 ar  
    27   16   17 ar  
    28   16   30 1   
    29   17   18 1   
    30   17   19 ar  
    31   18   31 1   
    32   19   20 ar  
    33   19   32 1   
    34   20   21 1   
    35   21   33 1   
@<TRIPOS>SUBSTRUCTURE
     1 ERD         1 TEMP              0 ****  ****    0 ROOT
