@<TRIPOS>MOLECULE
ERG
   73    76     1     0     0
SMALL
bcc


@<TRIPOS>ATOM
      1 C1          0.0580   -0.2960   -0.2770 c3        1 ERG     -0.067400
      2 C2          1.5130    0.1040   -0.2430 c3        1 ERG     -0.113400
      3 C3          1.8630    0.6830    1.1220 c3        1 ERG      0.145100
      4 C4          1.5770   -0.3310    2.2250 c3        1 ERG     -0.038200
      5 C5          0.2000   -0.8910    2.1450 c2        1 ERG     -0.105400
      6 C6         -0.5060   -1.1000    3.2740 ce        1 ERG     -0.132000
      7 C7         -1.8330   -1.6630    3.2460 ce        1 ERG     -0.146000
      8 C8         -2.4760   -1.8560    2.0800 c2        1 ERG     -0.081400
      9 C9         -1.8570   -1.4790    0.7640 c3        1 ERG     -0.015500
     10 C10        -0.3100   -1.3340    0.7960 c3        1 ERG      0.003200
     11 C11        -2.3020   -2.3720   -0.3960 c3        1 ERG     -0.073400
     12 C12        -3.7800   -2.7230   -0.4010 c3        1 ERG     -0.067400
     13 C13        -4.1770   -3.3230    0.9380 c3        1 ERG     -0.042000
     14 C14        -3.9090   -2.2200    1.9940 c3        1 ERG     -0.033500
     15 C15        -4.6640   -2.6990    3.2270 c3        1 ERG     -0.072400
     16 C16        -5.8940   -3.4140    2.6640 c3        1 ERG     -0.078400
     17 C17        -5.6870   -3.5750    1.1440 c3        1 ERG     -0.051700
     18 C18        -3.3750   -4.5790    1.2320 c3        1 ERG     -0.082100
     19 C19         0.3870   -2.6580    0.4790 c3        1 ERG     -0.086100
     20 C20        -6.2340   -4.9110    0.6490 c3        1 ERG     -0.026500
     21 C21        -6.1380   -5.0410   -0.8610 c3        1 ERG     -0.087100
     22 C22        -7.6650   -5.0480    1.0560 c2        1 ERG     -0.168200
     23 C23        -8.1630   -6.1430    1.6370 c2        1 ERG     -0.166200
     24 C24        -9.5950   -6.2930    2.0310 c3        1 ERG     -0.031500
     25 C25       -10.1920   -7.5490    1.3880 c3        1 ERG     -0.060700
     26 C26       -11.6320   -7.7550    1.8130 c3        1 ERG     -0.090600
     27 C27       -10.1080   -7.4660   -0.1230 c3        1 ERG     -0.090600
     28 C28        -9.6960   -6.3460    3.5450 c3        1 ERG     -0.087100
     29 O1          3.2510    0.9880    1.2130 oh        1 ERG     -0.601800
     30 H11        -0.1880   -0.7170   -1.2870 hc        1 ERG      0.043700
     31 H12        -0.5710    0.6220   -0.1300 hc        1 ERG      0.043700
     32 H21         1.7130    0.8680   -1.0390 hc        1 ERG      0.047700
     33 H22A        2.1700   -0.7800   -0.4510 hc        1 ERG      0.047700
     34 H3          1.2690    1.6240    1.3000 h1        1 ERG      0.036700
     35 H41         2.3250   -1.1670    2.1470 hc        1 ERG      0.062200
     36 H42         1.7450    0.1650    3.2180 hc        1 ERG      0.062200
     37 H6         -0.1000   -0.8270    4.2610 ha        1 ERG      0.128000
     38 H7         -2.3090   -1.8920    4.2120 ha        1 ERG      0.131000
     39 H9         -2.2780   -0.4470    0.5520 hc        1 ERG      0.052700
     40 H111       -1.7330   -3.3390   -0.3880 hc        1 ERG      0.043700
     41 H112       -2.0500   -1.8470   -1.3560 hc        1 ERG      0.043700
     42 H121       -3.9790   -3.4490   -1.2310 hc        1 ERG      0.042200
     43 H122       -4.3950   -1.8070   -0.6030 hc        1 ERG      0.042200
     44 H14        -4.4350   -1.2810    1.6370 hc        1 ERG      0.054700
     45 H151       -4.0390   -3.4040    3.8300 hc        1 ERG      0.045200
     46 H152       -4.9510   -1.8450    3.8860 hc        1 ERG      0.045200
     47 H161       -6.0200   -4.4130    3.1500 hc        1 ERG      0.044700
     48 H162       -6.8230   -2.8240    2.8590 hc        1 ERG      0.044700
     49 H17        -6.2460   -2.7560    0.6120 hc        1 ERG      0.046700
     50 H181       -3.7700   -5.0860    2.1460 hc        1 ERG      0.038033
     51 H182       -3.4360   -5.2870    0.3710 hc        1 ERG      0.038033
     52 H183       -2.3020   -4.3270    1.4150 hc        1 ERG      0.038033
     53 H191       -0.0610   -3.4830    1.0840 hc        1 ERG      0.039367
     54 H192        1.4750   -2.5930    0.7230 hc        1 ERG      0.039367
     55 H193        0.2950   -2.9040   -0.6070 hc        1 ERG      0.039367
     56 H20        -5.6350   -5.7450    1.1150 hc        1 ERG      0.054700
     57 H211       -6.7470   -5.9100   -1.2100 hc        1 ERG      0.035700
     58 H212       -5.0780   -5.2100   -1.1690 hc        1 ERG      0.035700
     59 H213       -6.5140   -4.1190   -1.3640 hc        1 ERG      0.035700
     60 H22        -8.3010   -4.1780    0.8260 ha        1 ERG      0.121000
     61 H23        -7.5260   -7.0120    1.8700 ha        1 ERG      0.121000
     62 H24       -10.1830   -5.4020    1.6670 hc        1 ERG      0.050700
     63 H25        -9.5890   -8.4370    1.7310 hc        1 ERG      0.045700
     64 H261      -12.2310   -6.8300    1.6340 hc        1 ERG      0.034200
     65 H262      -12.0890   -8.5910    1.2300 hc        1 ERG      0.034200
     66 H263      -11.6900   -8.0110    2.8980 hc        1 ERG      0.034200
     67 H271       -9.0520   -7.2950   -0.4460 hc        1 ERG      0.034200
     68 H272      -10.4720   -8.4160   -0.5830 hc        1 ERG      0.034200
     69 H273      -10.7350   -6.6250   -0.5050 hc        1 ERG      0.034200
     70 H281      -10.7620   -6.2700    3.8660 hc        1 ERG      0.035033
     71 H282       -9.2730   -7.3030    3.9340 hc        1 ERG      0.035033
     72 H283       -9.1290   -5.4970    3.9990 hc        1 ERG      0.035033
     73 HO1         3.4520    1.5810    0.4800 ho        1 ERG      0.399000
@<TRIPOS>BOND
     1    1    2 1   
     2    1   10 1   
     3    1   30 1   
     4    1   31 1   
     5    2    3 1   
     6    2   32 1   
     7    2   33 1   
     8    3    4 1   
     9    3   29 1   
    10    3   34 1   
    11    4    5 1   
    12    4   35 1   
    13    4   36 1   
    14    5    6 2   
    15    5   10 1   
    16    6    7 1   
    17    6   37 1   
    18    7    8 2   
    19    7   38 1   
    20    8    9 1   
    21    8   14 1   
    22    9   10 1   
    23    9   11 1   
    24    9   39 1   
    25   10   19 1   
    26   11   12 1   
    27   11   40 1   
    28   11   41 1   
    29   12   13 1   
    30   12   42 1   
    31   12   43 1   
    32   13   14 1   
    33   13   17 1   
    34   13   18 1   
    35   14   15 1   
    36   14   44 1   
    37   15   16 1   
    38   15   45 1   
    39   15   46 1   
    40   16   17 1   
    41   16   47 1   
    42   16   48 1   
    43   17   20 1   
    44   17   49 1   
    45   18   50 1   
    46   18   51 1   
    47   18   52 1   
    48   19   53 1   
    49   19   54 1   
    50   19   55 1   
    51   20   21 1   
    52   20   22 1   
    53   20   56 1   
    54   21   57 1   
    55   21   58 1   
    56   21   59 1   
    57   22   23 2   
    58   22   60 1   
    59   23   24 1   
    60   23   61 1   
    61   24   25 1   
    62   24   28 1   
    63   24   62 1   
    64   25   26 1   
    65   25   27 1   
    66   25   63 1   
    67   26   64 1   
    68   26   65 1   
    69   26   66 1   
    70   27   67 1   
    71   27   68 1   
    72   27   69 1   
    73   28   70 1   
    74   28   71 1   
    75   28   72 1   
    76   29   73 1   
@<TRIPOS>SUBSTRUCTURE
     1 ERG         1 TEMP              0 ****  ****    0 ROOT
