@<TRIPOS>MOLECULE
molecule
   73    76     1     0     0
SMALL
bcc


@<TRIPOS>ATOM
      1 C1           0.0000     0.0000     0.0000 c3         1 ERG      -0.066400
      2 C2           1.5300     0.0000     0.0000 c3         1 ERG      -0.094400
      3 C3           2.0450     0.0000     1.4390 c3         1 ERG       0.149100
      4 C4           1.6190    -1.2980     2.1320 c3         1 ERG      -0.048200
      5 C5           0.1120    -1.4330     2.0110 c2         1 ERG      -0.108400
      6 C6          -0.5900    -1.6750     3.1060 ce         1 ERG      -0.130000
      7 C7          -2.0480    -1.8110     3.0450 ce         1 ERG      -0.147000
      8 C8          -2.6900    -1.6720     1.9030 c2         1 ERG      -0.084400
      9 C9          -2.0060    -1.3630     0.6030 c3         1 ERG      -0.014500
     10 C10         -0.5080    -1.2860     0.6590 c3         1 ERG      -0.008800
     11 C11         -2.4700    -2.2920    -0.5170 c3         1 ERG      -0.075400
     12 C12         -4.0030    -2.4230    -0.5500 c3         1 ERG      -0.066400
     13 C13         -4.4590    -2.9310     0.7910 c3         1 ERG      -0.062000
     14 C14         -4.1850    -1.8170     1.8410 c3         1 ERG      -0.036500
     15 C15         -4.8670    -2.3980     3.0810 c3         1 ERG      -0.078400
     16 C16         -6.1940    -2.9700     2.5050 c3         1 ERG      -0.079400
     17 C17         -5.9310    -3.2500     1.0030 c3         1 ERG      -0.049700
     18 C18         -3.6220    -4.1500     1.1810 c3         1 ERG      -0.098100
     19 C19          0.0130    -2.4450    -0.1920 c3         1 ERG      -0.095100
     20 C20         -6.2090    -4.7190     0.6790 c3         1 ERG      -0.038500
     21 C21         -5.8760    -4.9890    -0.7910 c3         1 ERG      -0.088100
     22 C22         -7.6640    -5.0220     0.9280 c2         1 ERG      -0.170200
     23 C23         -8.0030    -5.9340     1.8030 c2         1 ERG      -0.171200
     24 C24         -9.4570    -6.2380     2.0530 c3         1 ERG      -0.034500
     25 C25         -9.7360    -7.7070     1.7300 c3         1 ERG      -0.068700
     26 C26        -11.2120    -8.0140     1.9820 c3         1 ERG      -0.087600
     27 C27         -9.4030    -7.9770     0.2610 c3         1 ERG      -0.087600
     28 C28         -9.7890    -5.9680     3.5220 c3         1 ERG      -0.085100
     29 O1           3.4710     0.0920     1.4350 oh         1 ERG      -0.607800
     30 H11         -0.3600     0.8570     0.5570 hc         1 ERG       0.045700
     31 H12         -0.3600     0.0480    -1.0210 hc         1 ERG       0.045700
     32 H21          1.8890    -0.8860    -0.5100 hc         1 ERG       0.053700
     33 H22A         1.8890     0.8860    -0.5100 hc         1 ERG       0.053700
     34 H3           1.6260     0.8460     1.9700 h1         1 ERG       0.033700
     35 H41          2.0990    -2.1420     1.6520 hc         1 ERG       0.058200
     36 H42          1.8980    -1.2600     3.1790 hc         1 ERG       0.058200
     37 H6          -0.0820    -1.7740     4.0580 ha         1 ERG       0.127000
     38 H7          -2.6040    -2.0220     3.9500 ha         1 ERG       0.131000
     39 H9          -2.3410    -0.3710     0.3240 hc         1 ERG       0.050700
     40 H111        -2.0370    -3.2730    -0.3620 hc         1 ERG       0.049700
     41 H112        -2.1300    -1.8960    -1.4660 hc         1 ERG       0.049700
     42 H121        -4.2920    -3.1240    -1.3240 hc         1 ERG       0.045200
     43 H122        -4.4470    -1.4540    -0.7430 hc         1 ERG       0.045200
     44 H14         -4.6530    -0.8860     1.5430 hc         1 ERG       0.065700
     45 H151        -4.2650    -3.1890     3.5130 hc         1 ERG       0.048200
     46 H152        -5.0700    -1.6190     3.8060 hc         1 ERG       0.048200
     47 H161        -6.9890    -2.2430     2.6120 hc         1 ERG       0.046700
     48 H162        -6.4520    -3.8910     3.0130 hc         1 ERG       0.046700
     49 H17         -6.5450    -2.6010     0.3900 hc         1 ERG       0.054700
     50 H181        -2.7380    -3.8240     1.7170 hc         1 ERG       0.041367
     51 H182        -3.3260    -4.6860     0.2880 hc         1 ERG       0.041367
     52 H183        -4.2090    -4.8020     1.8160 hc         1 ERG       0.041367
     53 H191         1.0940    -2.4760    -0.1390 hc         1 ERG       0.040033
     54 H192        -0.2940    -2.3040    -1.2210 hc         1 ERG       0.040033
     55 H193        -0.3940    -3.3780     0.1810 hc         1 ERG       0.040033
     56 H20         -5.5950    -5.3510     1.3100 hc         1 ERG       0.063700
     57 H211        -5.9370    -4.0630    -1.3500 hc         1 ERG       0.036700
     58 H212        -6.5830    -5.7020    -1.1960 hc         1 ERG       0.036700
     59 H213        -4.8730    -5.3910    -0.8660 hc         1 ERG       0.036700
     60 H22         -8.4300    -4.4840     0.3820 ha         1 ERG       0.124000
     61 H23         -7.2370    -6.4720     2.3490 ha         1 ERG       0.124000
     62 H24        -10.0710    -5.6070     1.4220 hc         1 ERG       0.052700
     63 H25         -9.1230    -8.3380     2.3610 hc         1 ERG       0.050700
     64 H261       -11.4780    -8.9400     1.4870 hc         1 ERG       0.033700
     65 H262       -11.3840    -8.1110     3.0470 hc         1 ERG       0.033700
     66 H263       -11.8210    -7.2070     1.5910 hc         1 ERG       0.033700
     67 H271        -9.8500    -8.9150    -0.0440 hc         1 ERG       0.033700
     68 H272        -9.7940    -7.1730    -0.3510 hc         1 ERG       0.033700
     69 H273        -8.3280    -8.0330     0.1390 hc         1 ERG       0.033700
     70 H281        -9.3610    -5.0180     3.8200 hc         1 ERG       0.035033
     71 H282        -9.3770    -6.7590     4.1370 hc         1 ERG       0.035033
     72 H283       -10.8650    -5.9340     3.6480 hc         1 ERG       0.035033
     73 HO1          3.7370     0.8790     1.8820 ho         1 ERG       0.400000
@<TRIPOS>BOND
     1     1     2 1
     2     1    10 1
     3     1    30 1
     4     1    31 1
     5     2     3 1
     6     2    32 1
     7     2    33 1
     8     3     4 1
     9     3    29 1
    10     3    34 1
    11     4     5 1
    12     4    35 1
    13     4    36 1
    14     5     6 2
    15     5    10 1
    16     6     7 1
    17     6    37 1
    18     7     8 2
    19     7    38 1
    20     8     9 1
    21     8    14 1
    22     9    10 1
    23     9    11 1
    24     9    39 1
    25    10    19 1
    26    11    12 1
    27    11    40 1
    28    11    41 1
    29    12    13 1
    30    12    42 1
    31    12    43 1
    32    13    14 1
    33    13    17 1
    34    13    18 1
    35    14    15 1
    36    14    44 1
    37    15    16 1
    38    15    45 1
    39    15    46 1
    40    16    17 1
    41    16    47 1
    42    16    48 1
    43    17    20 1
    44    17    49 1
    45    18    50 1
    46    18    51 1
    47    18    52 1
    48    19    53 1
    49    19    54 1
    50    19    55 1
    51    20    21 1
    52    20    22 1
    53    20    56 1
    54    21    57 1
    55    21    58 1
    56    21    59 1
    57    22    23 2
    58    22    60 1
    59    23    24 1
    60    23    61 1
    61    24    25 1
    62    24    28 1
    63    24    62 1
    64    25    26 1
    65    25    27 1
    66    25    63 1
    67    26    64 1
    68    26    65 1
    69    26    66 1
    70    27    67 1
    71    27    68 1
    72    27    69 1
    73    28    70 1
    74    28    71 1
    75    28    72 1
    76    29    73 1
@<TRIPOS>SUBSTRUCTURE
     1 ERG         1 TEMP              0 ****  ****    0 ROOT
