@<TRIPOS>MOLECULE
molecule
   19    19     1     0     0
SMALL
bcc


@<TRIPOS>ATOM
      1 O01          0.0000     0.0000     0.0000 oh         1 ERH      -0.523100
      2 C02          3.6380     0.0000     0.0000 ca         1 ERH      -0.066300
      3 C03          2.8500    -0.0010     2.2630 ca         1 ERH      -0.066300
      4 C04          3.8960     0.0000     1.3590 ca         1 ERH      -0.138000
      5 C05          2.3350     0.0000    -0.4580 ca         1 ERH      -0.158500
      6 C06          1.5450    -0.0000     1.8110 ca         1 ERH      -0.158500
      7 C07          1.2830    -0.0010     0.4470 ca         1 ERH       0.111100
      8 C08          4.7820     0.0070    -0.9830 c3         1 ERH      -0.047800
      9 C09          3.1340    -0.0010     3.7430 c3         1 ERH      -0.047800
     10 H01         -0.2760     0.8870    -0.1610 ho         1 ERH       0.418000
     11 H04          4.9190    -0.0000     1.7150 ha         1 ERH       0.132000
     12 H05          2.1350     0.0000    -1.5220 ha         1 ERH       0.139500
     13 H081         5.1230     1.0240    -1.1330 hc         1 ERH       0.044367
     14 H082         4.4480    -0.4060    -1.9280 hc         1 ERH       0.044367
     15 H083         5.5950    -0.5940    -0.5950 hc         1 ERH       0.044367
     16 H06          0.7260    -0.0010     2.5200 ha         1 ERH       0.139500
     17 H091         2.2410     0.2920     4.2820 hc         1 ERH       0.044367
     18 H092         3.4330    -0.9950     4.0530 hc         1 ERH       0.044367
     19 H093         3.9320     0.6990     3.9580 hc         1 ERH       0.044367
@<TRIPOS>BOND
     1     1     7 1
     2     2     4 ar
     3     2     5 ar
     4     2     8 1
     5     3     4 ar
     6     3     6 ar
     7     3     9 1
     8     5     7 ar
     9     6     7 ar
    10     1    10 1
    11     4    11 1
    12     5    12 1
    13     8    13 1
    14     8    14 1
    15     8    15 1
    16     6    16 1
    17     9    17 1
    18     9    18 1
    19     9    19 1
@<TRIPOS>SUBSTRUCTURE
     1 ERH         1 TEMP              0 ****  ****    0 ROOT
