@<TRIPOS>MOLECULE
ERK
   64    68     1     0     0
SMALL
bcc


@<TRIPOS>ATOM
      1 C1           0.0000     0.0000     0.0000 c3         1 ERK      -0.013100
      2 C2           1.5310     0.0000     0.0000 c3         1 ERK       0.080000
      3 C6           2.6470     1.1610     3.4730 c3         1 ERK       0.015000
      4 C8           3.8460     3.4440     3.8710 c3         1 ERK       0.111300
      5 C10          4.0650     5.9400     4.7270 ca         1 ERK      -0.087000
      6 C11          3.4120     6.9730     5.3710 ca         1 ERK      -0.075000
      7 C12          2.1010     6.8020     5.8150 cp         1 ERK      -0.182500
      8 C13          1.4490     5.5910     5.6100 ca         1 ERK       0.028000
      9 C14          2.1110     4.5500     4.9600 ca         1 ERK      -0.175600
     10 C15          1.6960     3.1770     4.6030 c          1 ERK       0.665100
     11 N18          0.0940     8.0980     6.3380 nb         1 ERK      -0.676000
     12 C19         -0.5320     9.0870     6.9540 ca         1 ERK       0.727900
     13 C21         -2.6050    10.3410     7.4280 c3         1 ERK       0.136500
     14 C22         -3.8600    10.7030     6.6280 c3         1 ERK      -0.082900
     15 C23         -4.6380    11.7870     7.3790 c3         1 ERK       0.220900
     16 C25         -3.8290    11.0070     9.4980 c3         1 ERK       0.220900
     17 C26         -3.0180     9.8920     8.8330 c3         1 ERK      -0.082900
     18 C28          1.4090     9.8020     7.9720 ca         1 ERK       0.501200
     19 C31          2.0330    -1.2300    -0.7110 ca         1 ERK      -0.108300
     20 C35          2.5230    -3.5740    -0.7040 ca         1 ERK      -0.094500
     21 C36          2.0620    -2.4450    -0.0510 ca         1 ERK      -0.095000
     22 N3           2.0180     0.0000     1.3820 ns         1 ERK      -0.196900
     23 C4           2.1460     1.1620     2.0520 c          1 ERK       0.550100
     24 O5           1.8580     2.2090     1.5110 o          1 ERK      -0.637100
     25 N7           2.6970     2.5370     3.9730 n          1 ERK      -0.135800
     26 C9           3.4250     4.7380     4.5220 ca         1 ERK      -0.080300
     27 C17          1.4010     7.9120     6.5070 cp         1 ERK       0.540800
     28 O24         -4.9660    11.3160     8.6870 os         1 ERK      -0.409600
     29 N27          0.1090     9.9240     7.7550 nb         1 ERK      -0.699000
     30 C29          2.1050     8.7800     7.3480 ca         1 ERK      -0.360200
     31 Cl3          3.8110     8.5810     7.6030 cl         1 ERK       0.007600
     32 C32          2.4610    -1.1440    -2.0220 ca         1 ERK      -0.095000
     33 C33          2.9220    -2.2720    -2.6730 ca         1 ERK      -0.094500
     34 C34          2.9560    -3.4870    -2.0140 ca         1 ERK      -0.098000
     35 H39         -0.3610    -0.7070     0.7370 hc         1 ERK       0.015367
     36 H38         -0.3610     0.9920     0.2440 hc         1 ERK       0.015367
     37 H40         -0.3610    -0.2850    -0.9810 hc         1 ERK       0.015367
     38 H37          1.8920     0.8850    -0.5100 h1         1 ERK       0.058700
     39 H42          3.6400     0.7290     3.5060 h1         1 ERK       0.039700
     40 H43          1.9780     0.5760     4.0920 h1         1 ERK       0.039700
     41 H44          4.0900     3.6150     2.8300 h1         1 ERK       0.028700
     42 H45          4.6960     3.0250     4.3950 h1         1 ERK       0.028700
     43 H46          5.0840     6.0750     4.3830 ha         1 ERK       0.106000
     44 H47          3.9180     7.9170     5.5310 ha         1 ERK       0.128000
     45 H48          0.4300     5.4560     5.9550 ha         1 ERK       0.129000
     46 H50         -1.9610    11.2090     7.5020 h1         1 ERK       0.055700
     47 H51         -4.4830     9.8240     6.5160 hc         1 ERK       0.030450
     48 H52         -3.5710    11.0760     5.6530 hc         1 ERK       0.030450
     49 H53         -4.0270    12.6780     7.4600 h1         1 ERK       0.009200
     50 H54         -5.5490    12.0150     6.8400 h1         1 ERK       0.009200
     51 H56         -4.1610    10.6770    10.4750 h1         1 ERK       0.009200
     52 H55         -3.2090    11.8900     9.6010 h1         1 ERK       0.009200
     53 H57         -3.6250     8.9970     8.7620 hc         1 ERK       0.030450
     54 H58         -2.1320     9.6890     9.4230 hc         1 ERK       0.030450
     55 H59          1.9230    10.4920     8.6300 h4         1 ERK      -0.010900
     56 H63          2.5480    -4.5260    -0.1880 ha         1 ERK       0.104500
     57 H64          1.7230    -2.5130     0.9750 ha         1 ERK       0.107000
     58 H41          2.2690    -0.8620     1.8240 hn         1 ERK       0.179500
     59 H49         -2.3810     8.6520     6.1190 hn         1 ERK       0.305800
     60 H60          2.4350    -0.1930    -2.5400 ha         1 ERK       0.107000
     61 H61          3.2590    -2.2050    -3.7010 ha         1 ERK       0.104500
     62 H62          3.3170    -4.3710    -2.5240 ha         1 ERK       0.104000
     63 O16          0.6060     2.6960     4.8440 o          1 ERK      -0.670500
     64 N20         -1.8930     9.2510     6.7550 nu         1 ERK      -0.472900
@<TRIPOS>BOND
     1     1     2 1   
     2     1    35 1   
     3     1    36 1   
     4     1    37 1   
     5     2    19 1   
     6     2    22 1   
     7     2    38 1   
     8     3    23 1   
     9     3    25 1   
    10     3    39 1   
    11     3    40 1   
    12     4    25 1   
    13     4    26 1   
    14     4    41 1   
    15     4    42 1   
    16     5     6 ar  
    17     5    26 ar  
    18     5    43 1   
    19     6     7 ar  
    20     6    44 1   
    21     7     8 ar  
    22     7    27 1   
    23     8     9 ar  
    24     8    45 1   
    25     9    10 1   
    26     9    26 ar  
    27    10    25 1   
    28    10    63 2   
    29    11    12 ar  
    30    11    27 ar  
    31    12    29 ar  
    32    12    64 1   
    33    13    14 1   
    34    13    17 1   
    35    13    46 1   
    36    13    64 1   
    37    14    15 1   
    38    14    47 1   
    39    14    48 1   
    40    15    28 1   
    41    15    49 1   
    42    15    50 1   
    43    16    17 1   
    44    16    28 1   
    45    16    51 1   
    46    16    52 1   
    47    17    53 1   
    48    17    54 1   
    49    18    29 ar  
    50    18    30 ar  
    51    18    55 1   
    52    19    21 ar  
    53    19    32 ar  
    54    20    21 ar  
    55    20    34 ar  
    56    20    56 1   
    57    21    57 1   
    58    22    23 1   
    59    22    58 1   
    60    23    24 2   
    61    27    30 ar  
    62    30    31 1   
    63    32    33 ar  
    64    32    60 1   
    65    33    34 ar  
    66    33    61 1   
    67    34    62 1   
    68    59    64 1   
@<TRIPOS>SUBSTRUCTURE
     1 ERK         1 TEMP              0 ****  ****    0 ROOT
