@<TRIPOS>MOLECULE
ERO
   18    18     1     0     0
SMALL
bcc


@<TRIPOS>ATOM
      1 OAB          0.0000     0.0000     0.0000 o          1 ERO      -0.852800
      2 CAI          1.3480     0.0000     0.0000 c          1 ERO       0.976800
      3 OAE          1.9560     0.0000     1.0510 o          1 ERO      -0.852800
      4 CAK          2.0870     0.0000    -1.2790 cc         1 ERO      -0.123600
      5 NAG          1.4110    -0.1130    -2.4770 ns         1 ERO       0.061900
      6 CAL          2.0670    -0.1140    -3.6480 c          1 ERO       0.558500
      7 OAC          1.4290    -0.2170    -4.6780 o          1 ERO      -0.761500
      8 NAH          3.4040    -0.0040    -3.7220 ns         1 ERO      -0.138500
      9 CAM          4.1490     0.1120    -2.6040 c          1 ERO       0.621700
     10 OAD          5.3590     0.2150    -2.6730 o          1 ERO      -0.695500
     11 CAJ          3.4660     0.1220    -1.2930 cd         1 ERO      -0.230200
     12 CAF          4.2300     0.2450    -0.0410 cf         1 ERO      -0.086000
     13 CAA          5.5380     0.4810    -0.0800 c2         1 ERO      -0.263000
     14 H2           3.8520    -0.0090    -4.6170 hn         1 ERO       0.187500
     15 H4           3.7260     0.1440     0.9130 ha         1 ERO       0.186000
     16 H6           6.0420     0.5830    -1.0340 ha         1 ERO       0.100000
     17 H7           6.1000     0.5720     0.8420 ha         1 ERO       0.100000
     18 H9           0.4140    -0.1970    -2.4720 hn         1 ERO       0.212500
@<TRIPOS>BOND
     1     1     2 1   
     2     2     3 1   
     3     2     4 1   
     4     4     5 1   
     5     4    11 2   
     6     5     6 1   
     7     5    18 1   
     8     6     7 2   
     9     6     8 1   
    10     8     9 1   
    11     8    14 1   
    12     9    10 2   
    13     9    11 1   
    14    11    12 1   
    15    12    13 2   
    16    12    15 1   
    17    13    16 1   
    18    13    17 1   
@<TRIPOS>SUBSTRUCTURE
     1 ERO         1 TEMP              0 ****  ****    0 ROOT
