@<TRIPOS>MOLECULE
molecule
   18    18     1     0     0
SMALL
bcc


@<TRIPOS>ATOM
      1 OAB          0.0000     0.0000     0.0000 o          1 ERO      -0.804300
      2 CAI          1.3480     0.0000     0.0000 c          1 ERO       0.882800
      3 OAE          1.9560     0.0000     1.0510 o          1 ERO      -0.804300
      4 CAK          2.0870     0.0000    -1.2790 cc         1 ERO       0.052400
      5 NAG          1.4110    -0.1130    -2.4770 ns         1 ERO      -0.424100
      6 CAL          2.0670    -0.1140    -3.6480 c          1 ERO       0.797500
      7 OAC          1.4290    -0.2170    -4.6780 o          1 ERO      -0.706500
      8 NAH          3.4040    -0.0040    -3.7220 ns         1 ERO      -0.566500
      9 CAM          4.1490     0.1120    -2.6040 c          1 ERO       0.703700
     10 OAD          5.3590     0.2150    -2.6730 o          1 ERO      -0.657500
     11 CAJ          3.4660     0.1220    -1.2930 cc         1 ERO      -0.244200
     12 CAF          4.2300     0.2450    -0.0410 ce         1 ERO      -0.091000
     13 CAA          5.5380     0.4810    -0.0800 c2         1 ERO      -0.288000
     14 H2           3.8520    -0.0090    -4.6170 hn         1 ERO       0.341500
     15 H4           3.7260     0.1440     0.9130 ha         1 ERO       0.199000
     16 H6           6.1000     0.5720     0.8420 ha         1 ERO       0.115500
     17 H7           6.0420     0.5830    -1.0340 ha         1 ERO       0.115500
     18 H9           0.4140    -0.1970    -2.4720 hn         1 ERO       0.378500
@<TRIPOS>BOND
     1    13    12 2
     2    12    11 1
     3    10     9 2
     4     9    11 1
     5     9     8 1
     6    11     4 2
     7     8     6 1
     8     3     2 1
     9     4     2 1
    10     4     5 1
    11     2     1 1
    12     6     5 1
    13     6     7 2
    14     8    14 1
    15    12    15 1
    16    13    16 1
    17    13    17 1
    18     5    18 1
@<TRIPOS>SUBSTRUCTURE
     1 ERO         1 TEMP              0 ****  ****    0 ROOT
