@<TRIPOS>MOLECULE
ERU
   68    67     1     0     0
SMALL
bcc


@<TRIPOS>ATOM
      1 C22          0.0000     0.0000     0.0000 c3         1 ERU       0.005900
      2 C21          1.5300     0.0000     0.0000 c3         1 ERU      -0.028400
      3 C20          2.0400     0.0000     1.4420 c3         1 ERU      -0.029400
      4 C19          3.5700    -0.0000     1.4420 c3         1 ERU      -0.029400
      5 C18          4.0810    -0.0000     2.8840 c3         1 ERU      -0.029400
      6 C17          5.6100    -0.0000     2.8840 c3         1 ERU      -0.029400
      7 C16          6.1210    -0.0000     4.3260 c3         1 ERU      -0.024400
      8 C15          7.6510    -0.0010     4.3250 c3         1 ERU      -0.005200
      9 C14          8.1540    -0.0000     5.7470 c2         1 ERU      -0.150200
     10 C13          9.0250    -0.8990     6.1330 c2         1 ERU      -0.164200
     11 C12          9.6520    -1.8240     5.1220 c3         1 ERU      -0.004200
     12 C11         11.1760    -1.7480     5.2380 c3         1 ERU      -0.023400
     13 C10         11.8120    -2.6870     4.2120 c3         1 ERU      -0.029400
     14 C9          13.3370    -2.6110     4.3270 c3         1 ERU      -0.028400
     15 C8          13.9740    -3.5500     3.3010 c3         1 ERU      -0.028400
     16 C7          15.4970    -3.4730     3.4170 c3         1 ERU      -0.027400
     17 C6          16.1340    -4.4130     2.3900 c3         1 ERU      -0.027400
     18 C5          17.6580    -4.3370     2.5060 c3         1 ERU      -0.025400
     19 C4          18.2950    -5.2750     1.4800 c3         1 ERU      -0.025400
     20 C3          19.8180    -5.1990     1.5960 c3         1 ERU      -0.018400
     21 C2          20.4550    -6.1390     0.5690 c3         1 ERU      -0.090400
     22 C1          21.9560    -6.0640     0.6830 c          1 ERU       0.305100
     23 O           22.4660    -5.3320     1.5040 o          1 ERU      -0.386100
     24 N           22.7310    -6.8110    -0.1270 nz         1 ERU       0.195600
     25 H22         -0.3610    -0.8850     0.5100 hc         1 ERU       0.000700
     26 H22A        -0.3610     0.0000    -1.0210 hc         1 ERU       0.000700
     27 H22B        -0.3610     0.8840     0.5110 hc         1 ERU       0.000700
     28 H21          1.8910    -0.8840    -0.5110 hc         1 ERU       0.011200
     29 H21A         1.8910     0.8840    -0.5110 hc         1 ERU       0.011200
     30 H20          1.6790    -0.8840     1.9530 hc         1 ERU       0.015200
     31 H20A         1.6790     0.8850     1.9530 hc         1 ERU       0.015200
     32 H19          3.9320     0.8840     0.9310 hc         1 ERU       0.013700
     33 H19A         3.9310    -0.8850     0.9310 hc         1 ERU       0.013700
     34 H18          3.7200    -0.8850     3.3950 hc         1 ERU       0.016200
     35 H18A         3.7200     0.8840     3.3950 hc         1 ERU       0.016200
     36 H17          5.9710     0.8840     2.3730 hc         1 ERU       0.013200
     37 H17A         5.9710    -0.8850     2.3730 hc         1 ERU       0.013200
     38 H16          5.7590    -0.8850     4.8370 hc         1 ERU       0.016700
     39 H16A         5.7600     0.8840     4.8370 hc         1 ERU       0.016700
     40 H15          8.0110    -0.8860     3.8150 hc         1 ERU       0.025700
     41 H15A         8.0120     0.8830     3.8140 hc         1 ERU       0.025700
     42 H14          7.7050     0.6640     6.4750 ha         1 ERU       0.105000
     43 H13          9.3840    -0.8970     7.1550 ha         1 ERU       0.103000
     44 H12          9.3260    -2.8400     5.3100 hc         1 ERU       0.027200
     45 H12A         9.3500    -1.5260     4.1250 hc         1 ERU       0.027200
     46 H11         11.5030    -0.7320     5.0490 hc         1 ERU       0.016200
     47 H11A        11.4780    -2.0440     6.2350 hc         1 ERU       0.016200
     48 H10         11.4860    -3.7030     4.4010 hc         1 ERU       0.014700
     49 H10A        11.5100    -2.3910     3.2150 hc         1 ERU       0.014700
     50 H9          13.6390    -2.9080     5.3240 hc         1 ERU       0.016200
     51 H9A         13.6630    -1.5950     4.1380 hc         1 ERU       0.016200
     52 H8          13.6720    -3.2530     2.3040 hc         1 ERU       0.015700
     53 H8A         13.6480    -4.5660     3.4890 hc         1 ERU       0.015700
     54 H7          15.7990    -3.7700     4.4140 hc         1 ERU       0.017700
     55 H7A         15.8230    -2.4580     3.2280 hc         1 ERU       0.017700
     56 H6          15.8080    -5.4290     2.5790 hc         1 ERU       0.016700
     57 H6A         15.8320    -4.1170     1.3930 hc         1 ERU       0.016700
     58 H5          17.9590    -4.6340     3.5030 hc         1 ERU       0.020700
     59 H5A         17.9840    -3.3210     2.3170 hc         1 ERU       0.020700
     60 H4          17.9690    -6.2910     1.6680 hc         1 ERU       0.019700
     61 H4A         17.9930    -4.9790     0.4830 hc         1 ERU       0.019700
     62 H3          20.1450    -4.1830     1.4070 hc         1 ERU       0.038700
     63 H3A         20.1200    -5.4960     2.5930 hc         1 ERU       0.038700
     64 H2          20.1290    -7.1550     0.7580 hc         1 ERU       0.057700
     65 H2A         20.1530    -5.8420    -0.4280 hc         1 ERU       0.057700
     66 HN          23.6950    -6.6380     0.0810 hn         1 ERU       0.247800
     67 HNA         22.5470    -6.5690    -1.0810 hn         1 ERU       0.247800
     68 HN3         22.5270    -7.7800     0.0160 hn         1 ERU       0.247800
@<TRIPOS>BOND
     1     1     2 1   
     2     1    25 1   
     3     1    26 1   
     4     1    27 1   
     5     2     3 1   
     6     2    28 1   
     7     2    29 1   
     8     3     4 1   
     9     3    30 1   
    10     3    31 1   
    11     4     5 1   
    12     4    32 1   
    13     4    33 1   
    14     5     6 1   
    15     5    34 1   
    16     5    35 1   
    17     6     7 1   
    18     6    36 1   
    19     6    37 1   
    20     7     8 1   
    21     7    38 1   
    22     7    39 1   
    23     8     9 1   
    24     8    40 1   
    25     8    41 1   
    26     9    10 2   
    27     9    42 1   
    28    10    11 1   
    29    10    43 1   
    30    11    12 1   
    31    11    44 1   
    32    11    45 1   
    33    12    13 1   
    34    12    46 1   
    35    12    47 1   
    36    13    14 1   
    37    13    48 1   
    38    13    49 1   
    39    14    15 1   
    40    14    50 1   
    41    14    51 1   
    42    15    16 1   
    43    15    52 1   
    44    15    53 1   
    45    16    17 1   
    46    16    54 1   
    47    16    55 1   
    48    17    18 1   
    49    17    56 1   
    50    17    57 1   
    51    18    19 1   
    52    18    58 1   
    53    18    59 1   
    54    19    20 1   
    55    19    60 1   
    56    19    61 1   
    57    20    21 1   
    58    20    62 1   
    59    20    63 1   
    60    21    22 1   
    61    21    64 1   
    62    21    65 1   
    63    22    23 2   
    64    22    24 1   
    65    24    66 1   
    66    24    67 1   
    67    24    68 1   
@<TRIPOS>SUBSTRUCTURE
     1 ERU         1 TEMP              0 ****  ****    0 ROOT
