@<TRIPOS>MOLECULE
ERW
   63    66     1     0     0
SMALL
bcc


@<TRIPOS>ATOM
      1 C1           0.0000     0.0000     0.0000 c3         1 ERW       0.063300
      2 C3           2.1390     0.0010    -1.1670 c          1 ERW       0.567100
      3 C5           1.3860     0.0000    -2.4720 c3         1 ERW       0.008000
      4 C7           2.8930    -1.1920    -4.2350 c3         1 ERW       0.111300
      5 C8           3.8180    -0.6930    -5.3170 ca         1 ERW      -0.081300
      6 C10          5.3720    -0.5920    -7.1320 ca         1 ERW      -0.075000
      7 C11          5.3360     0.8020    -7.0920 cp         1 ERW      -0.181500
      8 C12          4.5360     1.4510    -6.1560 ca         1 ERW       0.028000
      9 C13          3.7710     0.7030    -5.2630 ca         1 ERW      -0.175600
     10 C14          2.8460     1.0930    -4.1810 c          1 ERW       0.664100
     11 C16          6.1520     1.5920    -8.0450 cp         1 ERW       0.542800
     12 C21          4.9010     6.9420   -11.6940 c3         1 ERW      -0.067900
     13 C22          5.6510     7.8950   -12.6300 c3         1 ERW       0.220400
     14 C24          7.5500     7.9560   -11.1670 c3         1 ERW       0.220400
     15 C25          6.8780     7.0070   -10.1740 c3         1 ERW      -0.067900
     16 C27          8.1340     1.9090    -9.3430 ca         1 ERW       0.502200
     17 C28          7.4090     1.1370    -8.4500 ca         1 ERW      -0.366200
     18 C31          3.0770     1.2500     1.3500 c3         1 ERW      -0.020100
     19 N2           1.4650     0.0000     0.0000 n          1 ERW      -0.148800
     20 O4           3.3520     0.0010    -1.1670 o          1 ERW      -0.636100
     21 N6           2.3380     0.0010    -3.5860 n          1 ERW      -0.134800
     22 C9           4.6110    -1.3300    -6.2440 ca         1 ERW      -0.087000
     23 N17          5.6960     2.7440    -8.5310 nb         1 ERW      -0.686000
     24 C18          6.4220     3.4510    -9.3820 ca         1 ERW       0.801900
     25 N19          5.9180     4.6450    -9.8700 nu         1 ERW      -0.556900
     26 C20          5.9150     6.0850   -10.9300 c3         1 ERW       0.201500
     27 O23          6.5510     8.7000   -11.8650 os         1 ERW      -0.407600
     28 N26          7.6190     3.0460    -9.7810 nb         1 ERW      -0.696000
     29 Cl2          8.0480    -0.3620    -7.8500 cl         1 ERW       0.007600
     30 C30          2.1970     0.0000     1.2690 c3         1 ERW       0.026400
     31 C32          3.0770    -1.2480     1.3500 c3         1 ERW      -0.020100
     32 C33          1.2030     0.0010     2.4310 c3         1 ERW      -0.020100
     33 H36         -0.3610    -0.8400     0.5810 h1         1 ERW       0.013367
     34 H35         -0.3610     0.9230     0.4370 h1         1 ERW       0.013367
     35 H34         -0.3610    -0.0830    -1.0180 h1         1 ERW       0.013367
     36 H37          0.7640    -0.8850    -2.5290 h1         1 ERW       0.042700
     37 H38          0.7630     0.8840    -2.5300 h1         1 ERW       0.042700
     38 H39          3.4480    -1.7810    -3.5150 h1         1 ERW       0.028200
     39 H40          2.0960    -1.7820    -4.6710 h1         1 ERW       0.028200
     40 H42          5.9950    -1.0960    -7.8600 ha         1 ERW       0.128000
     41 H43          4.5070     2.5340    -6.1230 ha         1 ERW       0.129000
     42 H47          4.3120     7.5170   -10.9900 hc         1 ERW       0.031950
     43 H48          6.2110     7.3190   -13.3570 h1         1 ERW       0.013450
     44 H49          4.9390     8.5330   -13.1390 h1         1 ERW       0.013450
     45 H51          8.1320     7.3810   -11.8780 h1         1 ERW       0.013450
     46 H50          8.1980     8.6380   -10.6310 h1         1 ERW       0.013450
     47 H52          6.3250     7.5830    -9.4420 hc         1 ERW       0.031950
     48 H53          7.6330     6.4100    -9.6770 hc         1 ERW       0.031950
     49 H54          9.1130     1.5860    -9.6770 h4         1 ERW      -0.011900
     50 H57          2.5390     2.0970     0.9440 hc         1 ERW       0.017367
     51 H56          3.9840     1.0910     0.7800 hc         1 ERW       0.017367
     52 H55          3.3310     1.4460     2.3850 hc         1 ERW       0.017367
     53 H41          4.6410    -2.4120    -6.2770 ha         1 ERW       0.106000
     54 H44          5.0130     4.9620    -9.5800 hn         1 ERW       0.253800
     55 H45          6.3020     5.8990   -11.9250 h1         1 ERW       0.012700
     56 H59          3.3150    -1.4560     2.3870 hc         1 ERW       0.017367
     57 H58          2.5470    -2.0920     0.9260 hc         1 ERW       0.017367
     58 H60          3.9930    -1.0810     0.7960 hc         1 ERW       0.017367
     59 H61          0.5700     0.8770     2.3640 hc         1 ERW       0.017367
     60 H63          1.7440     0.0170     3.3700 hc         1 ERW       0.017367
     61 H62          0.5910    -0.8920     2.3830 hc         1 ERW       0.017367
     62 O15          2.5820     2.2390    -3.8720 o          1 ERW      -0.672500
     63 H46          4.2530     6.2990   -12.2770 hc         1 ERW       0.031950
@<TRIPOS>BOND
     1     1    19 1   
     2     1    33 1   
     3     1    34 1   
     4     1    35 1   
     5     2     3 1   
     6     2    19 1   
     7     2    20 2   
     8     3    21 1   
     9     3    36 1   
    10     3    37 1   
    11     4     5 1   
    12     4    21 1   
    13     4    38 1   
    14     4    39 1   
    15     5     9 ar  
    16     5    22 ar  
    17     6     7 ar  
    18     6    22 ar  
    19     6    40 1   
    20     7     8 ar  
    21     7    11 1   
    22     8     9 ar  
    23     8    41 1   
    24     9    10 1   
    25    10    21 1   
    26    10    62 2   
    27    11    17 ar  
    28    11    23 ar  
    29    12    13 1   
    30    12    26 1   
    31    12    42 1   
    32    12    63 1   
    33    13    27 1   
    34    13    43 1   
    35    13    44 1   
    36    14    15 1   
    37    14    27 1   
    38    14    45 1   
    39    14    46 1   
    40    15    26 1   
    41    15    47 1   
    42    15    48 1   
    43    16    17 ar  
    44    16    28 ar  
    45    16    49 1   
    46    17    29 1   
    47    18    30 1   
    48    18    50 1   
    49    18    51 1   
    50    18    52 1   
    51    19    30 1   
    52    22    53 1   
    53    23    24 ar  
    54    24    25 1   
    55    24    28 ar  
    56    25    26 1   
    57    25    54 1   
    58    26    55 1   
    59    30    31 1   
    60    30    32 1   
    61    31    56 1   
    62    31    57 1   
    63    31    58 1   
    64    32    59 1   
    65    32    60 1   
    66    32    61 1   
@<TRIPOS>SUBSTRUCTURE
     1 ERW         1 TEMP              0 ****  ****    0 ROOT
