@<TRIPOS>MOLECULE
ERZ
   28    29     1     0     0
SMALL
bcc


@<TRIPOS>ATOM
      1 C1           0.0000     0.0000     0.0000 c3         1 ERZ       0.101200
      2 C2           1.5070     0.0000     0.0000 cc         1 ERZ      -0.279600
      3 C3           2.3100     0.0000     1.0940 cd         1 ERZ      -0.230700
      4 N4           1.8820     0.0010     2.4360 nu         1 ERZ      -0.226300
      5 C5           2.8140     0.0010     3.4590 ca         1 ERZ       0.693900
      6 C7           5.0210     0.0080     4.1120 ca         1 ERZ       0.491200
      7 C8           4.6160     0.0030     5.4380 ca         1 ERZ      -0.410900
      8 C10          3.2590     0.0020     5.7170 ca         1 ERZ       0.491200
      9 C12          3.6400    -0.0000     0.6510 cd         1 ERZ       0.378200
     10 N6           4.1050     0.0070     3.1580 nb         1 ERZ      -0.691500
     11 C9           5.6310    -0.0030     6.5520 c3         1 ERZ       0.091200
     12 N11          2.3950     0.0020     4.7160 nb         1 ERZ      -0.691500
     13 N13          3.6390    -0.0010    -0.6570 nc         1 ERZ      -0.644800
     14 N14          2.3090    -0.0070    -1.0970 na         1 ERZ       0.487400
     15 H18         -0.3610    -0.8790     0.5200 hc         1 ERZ       0.009367
     16 H17         -0.3610     0.8900     0.5010 hc         1 ERZ       0.009367
     17 H16         -0.3610    -0.0110    -1.0210 hc         1 ERZ       0.009367
     18 H19          0.9040     0.0080     2.6490 hn         1 ERZ       0.285800
     19 H20          6.0750     0.0100     3.8610 h4         1 ERZ      -0.016400
     20 H24          2.9100     0.0010     6.7420 h4         1 ERZ      -0.016400
     21 H25          4.5190     0.0020     1.2840 h4         1 ERZ       0.058100
     22 H28          1.2500     0.8650    -2.6770 h1         1 ERZ       0.020033
     23 H27          2.7240     0.0090    -3.1480 h1         1 ERZ       0.020033
     24 H26          1.2820    -0.9040    -2.6850 h1         1 ERZ       0.020033
     25 H22          6.2560    -0.8840     6.4670 hc         1 ERZ       0.005367
     26 H21          5.1190    -0.0140     7.5070 hc         1 ERZ       0.005367
     27 H23          6.2480     0.8850     6.4840 hc         1 ERZ       0.005367
     28 C15          1.8620    -0.0090    -2.4930 c3         1 ERZ       0.025600
@<TRIPOS>BOND
     1     1     2 1   
     2     1    15 1   
     3     1    16 1   
     4     1    17 1   
     5     2     3 2   
     6     2    14 1   
     7     3     4 1   
     8     3     9 1   
     9     4     5 1   
    10     4    18 1   
    11     5    10 ar  
    12     5    12 ar  
    13     6     7 ar  
    14     6    10 ar  
    15     6    19 1   
    16     7     8 ar  
    17     7    11 1   
    18     8    12 ar  
    19     8    20 1   
    20     9    13 2   
    21     9    21 1   
    22    11    25 1   
    23    11    26 1   
    24    11    27 1   
    25    13    14 1   
    26    14    28 1   
    27    22    28 1   
    28    23    28 1   
    29    24    28 1   
@<TRIPOS>SUBSTRUCTURE
     1 ERZ         1 TEMP              0 ****  ****    0 ROOT
