@<TRIPOS>MOLECULE
molecule
   28    29     1     0     0
SMALL
bcc


@<TRIPOS>ATOM
      1 C1           0.0000     0.0000     0.0000 c3         1 ERZ      -0.023800
      2 C2           1.5070     0.0000     0.0000 cc         1 ERZ      -0.119600
      3 C3           2.3100     0.0000     1.0940 cd         1 ERZ      -0.055700
      4 N4           1.8820     0.0010     2.4360 nu         1 ERZ      -0.722300
      5 C5           2.8140     0.0010     3.4590 ca         1 ERZ       0.939900
      6 C7           5.0210     0.0080     4.1120 ca         1 ERZ       0.500200
      7 C8           4.6160     0.0030     5.4380 ca         1 ERZ      -0.400900
      8 C10          3.2590     0.0020     5.7170 ca         1 ERZ       0.500200
      9 C12          3.6400    -0.0000     0.6510 cd         1 ERZ       0.336200
     10 N6           4.1050     0.0070     3.1580 nb         1 ERZ      -0.794000
     11 C9           5.6310    -0.0030     6.5520 c3         1 ERZ      -0.030800
     12 N11          2.3950     0.0020     4.7160 nb         1 ERZ      -0.794000
     13 N13          3.6390    -0.0010    -0.6570 nc         1 ERZ      -0.510800
     14 N14          2.3090    -0.0070    -1.0970 na         1 ERZ       0.059400
     15 H18         -0.3610    -0.8790     0.5200 hc         1 ERZ       0.048033
     16 H17         -0.3610     0.8900     0.5010 hc         1 ERZ       0.048033
     17 H16         -0.3610    -0.0110    -1.0210 hc         1 ERZ       0.048033
     18 H19          0.9040     0.0080     2.6490 hn         1 ERZ       0.464800
     19 H20          6.0750     0.0100     3.8610 h4         1 ERZ       0.029100
     20 H24          2.9100     0.0010     6.7420 h4         1 ERZ       0.029100
     21 H25          4.5190     0.0020     1.2840 h4         1 ERZ       0.094100
     22 H28          1.2500     0.8650    -2.6770 h1         1 ERZ       0.051700
     23 H27          2.7240     0.0090    -3.1480 h1         1 ERZ       0.051700
     24 H26          1.2820    -0.9040    -2.6850 h1         1 ERZ       0.051700
     25 H22          6.2560    -0.8840     6.4670 hc         1 ERZ       0.042367
     26 H21          5.1190    -0.0140     7.5070 hc         1 ERZ       0.042367
     27 H23          6.2480     0.8850     6.4840 hc         1 ERZ       0.042367
     28 C15          1.8620    -0.0090    -2.4930 c3         1 ERZ       0.071600
@<TRIPOS>BOND
     1    28    14 1
     2    13    14 1
     3    13     9 2
     4    14     2 1
     5     9     3 1
     6     2     3 2
     7     2     1 1
     8     3     4 1
     9     4     5 1
    10     5    12 ar
    11     5    10 ar
    12    12     8 ar
    13    10     6 ar
    14     8     7 ar
    15     6     7 ar
    16     7    11 1
    17     1    15 1
    18     1    16 1
    19     1    17 1
    20     4    18 1
    21     6    19 1
    22     8    20 1
    23     9    21 1
    24    28    22 1
    25    28    23 1
    26    28    24 1
    27    11    25 1
    28    11    26 1
    29    11    27 1
@<TRIPOS>SUBSTRUCTURE
     1 ERZ         1 TEMP              0 ****  ****    0 ROOT
