@<TRIPOS>MOLECULE
ES0
   18    19     1     0     0
SMALL
bcc


@<TRIPOS>ATOM
      1 NAA          0.0000     0.0000     0.0000 nv         1 ES0      -0.497800
      2 OAB          5.0090    -0.0010    -2.1990 oh         1 ES0      -0.505100
      3 CAC          5.7300     0.0000     1.3740 ca         1 ES0      -0.092000
      4 CAD          5.9140     0.0000     0.0000 ca         1 ES0      -0.155000
      5 CAE          4.4630     0.0010     1.9110 ca         1 ES0      -0.073000
      6 NAF          2.0080     0.0010     1.2880 nc         1 ES0      -0.593100
      7 NAG          2.2680    -0.0000    -0.8850 na         1 ES0       0.235700
      8 CAH          1.3720     0.0000     0.1430 cd         1 ES0       0.319700
      9 CAI          4.8230    -0.0000    -0.8520 ca         1 ES0       0.143100
     10 CAJ          3.3490     0.0010     1.0650 ca         1 ES0       0.117400
     11 CAK          3.5360    -0.0000    -0.3250 ca         1 ES0      -0.304200
     12 HNAA        -0.5780     0.3970     0.7140 hn         1 ES0       0.274800
     13 HNAB        -0.4190    -0.4150    -0.8090 hn         1 ES0       0.274800
     14 HOAB         5.2520     0.8650    -2.4830 ho         1 ES0       0.399000
     15 HAC          6.5910     0.0000     2.0310 ha         1 ES0       0.103000
     16 HAD          6.9170    -0.0010    -0.4090 ha         1 ES0       0.113000
     17 HAE          4.3280     0.0010     2.9860 ha         1 ES0       0.112000
     18 HNAG         2.0520     0.1350    -1.8530 hn         1 ES0       0.129700
@<TRIPOS>BOND
     1     1     8 1   
     2     1    12 1   
     3     1    13 1   
     4     2     9 1   
     5     2    14 1   
     6     3     4 ar  
     7     3     5 ar  
     8     3    15 1   
     9     4     9 ar  
    10     4    16 1   
    11     5    10 ar  
    12     5    17 1   
    13     6     8 2   
    14     6    10 1   
    15     7     8 1   
    16     7    11 1   
    17     7    18 1   
    18     9    11 ar  
    19    10    11 ar  
@<TRIPOS>SUBSTRUCTURE
     1 ES0         1 TEMP              0 ****  ****    0 ROOT
