@<TRIPOS>MOLECULE
molecule
   18    19     1     0     0
SMALL
bcc


@<TRIPOS>ATOM
      1 NAA          0.0000     0.0000     0.0000 nv         1 ES0      -0.978800
      2 OAB          5.0090    -0.0010    -2.1990 oh         1 ES0      -0.525100
      3 CAC          5.7300     0.0000     1.3740 ca         1 ES0      -0.126000
      4 CAD          5.9140     0.0000     0.0000 ca         1 ES0      -0.162000
      5 CAE          4.4630     0.0010     1.9110 ca         1 ES0      -0.095000
      6 NAF          2.0080     0.0010     1.2880 nc         1 ES0      -0.661100
      7 NAG          2.2680    -0.0000    -0.8850 na         1 ES0      -0.286300
      8 CAH          1.3720     0.0000     0.1430 cd         1 ES0       0.668700
      9 CAI          4.8230    -0.0000    -0.8520 ca         1 ES0       0.110100
     10 CAJ          3.3490     0.0010     1.0650 ca         1 ES0       0.134400
     11 CAK          3.5360    -0.0000    -0.3250 ca         1 ES0      -0.116200
     12 HNAA        -0.5780     0.3970     0.7140 hn         1 ES0       0.450300
     13 HNAB        -0.4190    -0.4150    -0.8090 hn         1 ES0       0.450300
     14 HOAB         5.2520     0.8650    -2.4830 ho         1 ES0       0.415000
     15 HAC          6.5910     0.0000     2.0310 ha         1 ES0       0.134000
     16 HAD          6.9170    -0.0010    -0.4090 ha         1 ES0       0.140000
     17 HAE          4.3280     0.0010     2.9860 ha         1 ES0       0.143000
     18 HNAG         2.0520     0.1350    -1.8530 hn         1 ES0       0.303700
@<TRIPOS>BOND
     1     1     8 1
     2     2     9 1
     3     3     4 ar
     4     3     5 ar
     5     4     9 ar
     6     5    10 ar
     7     6     8 2
     8     6    10 1
     9     7     8 1
    10     7    11 1
    11     9    11 ar
    12    10    11 ar
    13     1    12 1
    14     1    13 1
    15     2    14 1
    16     3    15 1
    17     4    16 1
    18     5    17 1
    19     7    18 1
@<TRIPOS>SUBSTRUCTURE
     1 ES0         1 TEMP              0 ****  ****    0 ROOT
