@<TRIPOS>MOLECULE
molecule
   18    19     1     0     0
SMALL
bcc


@<TRIPOS>ATOM
      1 O01          0.0000     0.0000     0.0000 oh         1 ES1      -0.509100
      2 CAD          2.3840     0.0000     0.0000 ca         1 ES1      -0.318300
      3 CAE          3.5730     0.0000     0.7180 ca         1 ES1       0.451200
      4 CAF          1.1760    -0.0010     0.6740 ca         1 ES1       0.164100
      5 CAG          0.0950    -0.0050     4.2030 ca         1 ES1      -0.135000
      6 NAH          3.5890    -0.0020     2.0300 nb         1 ES1      -0.694000
      7 CAI          0.0250    -0.0040     2.8420 ca         1 ES1      -0.095000
      8 CAJ          2.4920    -0.0050     4.1510 ca         1 ES1      -0.171300
      9 CAK          1.3260    -0.0070     4.8530 ca         1 ES1      -0.112000
     10 CAL          1.2060    -0.0030     2.0870 ca         1 ES1      -0.173300
     11 CAM          2.4590    -0.0030     2.7460 ca         1 ES1       0.435600
     12 HO01        -0.0600    -0.7780    -0.5290 ho         1 ES1       0.428000
     13 HAE          4.5130     0.0010     0.1800 h4         1 ES1       0.024100
     14 HAG         -0.8180    -0.0060     4.7860 ha         1 ES1       0.132000
     15 HAI         -0.9390    -0.0020     2.3470 ha         1 ES1       0.145000
     16 HAJ          3.4410    -0.0060     4.6720 ha         1 ES1       0.150000
     17 HAK          1.3570    -0.0070     5.9360 ha         1 ES1       0.133000
     18 HAD          2.4030     0.0020    -1.0830 ha         1 ES1       0.143000
@<TRIPOS>BOND
     1     1     4 1
     2     2     3 ar
     3     2     4 ar
     4     3     6 ar
     5     4    10 ar
     6     5     7 ar
     7     5     9 ar
     8     6    11 ar
     9     7    10 ar
    10     8     9 ar
    11     8    11 ar
    12    10    11 ar
    13     1    12 1
    14     2    18 1
    15     3    13 1
    16     5    14 1
    17     7    15 1
    18     8    16 1
    19     9    17 1
@<TRIPOS>SUBSTRUCTURE
     1 ES1         1 TEMP              0 ****  ****    0 ROOT
