@<TRIPOS>MOLECULE
ES1
   18    19     1     0     0
SMALL
bcc


@<TRIPOS>ATOM
      1 O01        -0.0650   -0.1440    0.0790 oh        1 ES1     -0.490100
      2 CAD         2.3580   -0.1180   -0.0300 ca        1 ES1     -0.357300
      3 CAE         3.5730   -0.0760    0.7170 ca        1 ES1      0.446200
      4 CAF         1.1690   -0.1080    0.6750 ca        1 ES1      0.178100
      5 CAG         0.0690    0.0060    4.2550 ca        1 ES1     -0.141000
      6 NAH         3.6470   -0.0280    2.0340 nb        1 ES1     -0.680000
      7 CAI        -0.0020   -0.0440    2.8840 ca        1 ES1     -0.087000
      8 CAJ         2.4940    0.0330    4.1790 ca        1 ES1     -0.177300
      9 CAK         1.3260    0.0440    4.9010 ca        1 ES1     -0.112000
     10 CAL         1.1830   -0.0570    2.1090 ca        1 ES1     -0.164300
     11 CAM         2.4610   -0.0180    2.7480 ca        1 ES1      0.416600
     12 HO01        0.0660   -0.1760   -0.8810 ho        1 ES1      0.427000
     13 HAE         4.5370   -0.0830    0.1740 h4        1 ES1      0.022100
     14 HAG        -0.8480    0.0160    4.8630 ha        1 ES1      0.136000
     15 HAI        -0.9710   -0.0750    2.3600 ha        1 ES1      0.149000
     16 HAJ         3.4700    0.0640    4.6870 ha        1 ES1      0.151000
     17 HAK         1.3570    0.0840    6.0010 ha        1 ES1      0.135000
     18 HAD         2.3880   -0.1560   -1.1250 ha        1 ES1      0.145000
@<TRIPOS>BOND
     1    1    4 1   
     2    1   12 1   
     3    2    3 ar  
     4    2    4 ar  
     5    2   18 1   
     6    3    6 ar  
     7    3   13 1   
     8    4   10 ar  
     9    5    7 ar  
    10    5    9 ar  
    11    5   14 1   
    12    6   11 ar  
    13    7   10 ar  
    14    7   15 1   
    15    8    9 ar  
    16    8   11 ar  
    17    8   16 1   
    18    9   17 1   
    19   10   11 ar  
@<TRIPOS>SUBSTRUCTURE
     1 ES1         1 TEMP              0 ****  ****    0 ROOT
