@<TRIPOS>MOLECULE
ES2
   17    18     1     0     0
SMALL
bcc


@<TRIPOS>ATOM
      1 C10          0.0000     0.0000     0.0000 ca         1 ES2      -0.089400
      2 Cl01        -0.8120    -0.0170    -3.9180 cl         1 ES2      -0.019400
      3 C02          0.0360    -0.0100    -2.4040 ca         1 ES2      -0.005600
      4 C03          1.4200    -0.0090    -2.3890 ca         1 ES2      -0.124000
      5 C04          2.0950     0.0010    -1.1810 ca         1 ES2      -0.032000
      6 C05          1.3900     0.0000     0.0000 ca         1 ES2      -0.152300
      7 C06          1.8140     0.0000     1.4510 c3         1 ES2      -0.047100
      8 C07          0.5080    -0.0010     2.2170 c          1 ES2       0.609500
      9 O08          0.3800    -0.0010     3.4220 o          1 ES2      -0.644500
     10 N09         -0.4830    -0.0010     1.3090 ns         1 ES2      -0.009100
     11 C11         -0.6740    -0.0050    -1.2200 ca         1 ES2      -0.120000
     12 H03          1.9710     0.0650    -3.3190 ha         1 ES2       0.120000
     13 H04          3.1780     0.0020    -1.1660 ha         1 ES2       0.108000
     14 H06          2.3840     0.8930     1.6780 hc         1 ES2       0.054700
     15 H06A         2.3860    -0.8920     1.6770 hc         1 ES2       0.054700
     16 HN09        -1.4550    -0.0020     1.5450 hn         1 ES2       0.177500
     17 H11         -1.7570    -0.0050    -1.2390 ha         1 ES2       0.118000
@<TRIPOS>BOND
     1     1     6 ar  
     2     1    10 1   
     3     1    11 ar  
     4     2     3 1   
     5     3     4 ar  
     6     3    11 ar  
     7     4     5 ar  
     8     4    12 1   
     9     5     6 ar  
    10     5    13 1   
    11     6     7 1   
    12     7     8 1   
    13     7    14 1   
    14     7    15 1   
    15     8     9 2   
    16     8    10 1   
    17    10    16 1   
    18    11    17 1   
@<TRIPOS>SUBSTRUCTURE
     1 ES2         1 TEMP              0 ****  ****    0 ROOT
