@<TRIPOS>MOLECULE
molecule
    9     9     1     0     0
SMALL
bcc


@<TRIPOS>ATOM
      1 Br01         0.0000     0.0000     0.0000 br         1 ES3      -0.127200
      2 C02          1.8910     0.0000     0.0000 cc         1 ES3       0.374500
      3 C03          2.6830     0.0000     1.0890 cd         1 ES3      -0.239600
      4 N04          3.9770    -0.0010     0.6390 na         1 ES3      -0.296900
      5 C05          3.9290    -0.0020    -0.7110 cd         1 ES3       0.403400
      6 N06          2.6800    -0.0070    -1.0860 nc         1 ES3      -0.674000
      7 H03          2.3600     0.0010     2.1230 h4         1 ES3       0.185000
      8 HN04         4.8020     0.0010     1.2050 hn         1 ES3       0.303700
      9 H05          4.7870    -0.0040    -1.3730 h5         1 ES3       0.070100
@<TRIPOS>BOND
     1     1     2 1
     2     2     3 2
     3     2     6 1
     4     3     4 1
     5     4     5 1
     6     5     6 2
     7     3     7 1
     8     4     8 1
     9     5     9 1
@<TRIPOS>SUBSTRUCTURE
     1 ES3         1 TEMP              0 ****  ****    0 ROOT
