@<TRIPOS>MOLECULE
molecule
   13    14     1     0     0
SMALL
bcc


@<TRIPOS>ATOM
      1 C10          0.0000     0.0000     0.0000 ca         1 ES4      -0.145200
      2 Cl01         2.2830     0.0020    -1.4940 cl         1 ES4      -0.122000
      3 C02          1.3970     0.0000     0.0000 ca         1 ES4       0.615300
      4 N03          2.0300     0.0000     1.1620 nb         1 ES4      -0.746000
      5 C04          1.3680     0.0000     2.3050 ca         1 ES4       0.713900
      6 N05          0.0520    -0.0010     2.3570 nb         1 ES4      -0.746000
      7 C06         -0.6670    -0.0010     1.2420 ca         1 ES4       0.448800
      8 N07         -2.0070    -0.0010     0.9510 na         1 ES4      -0.361000
      9 C08         -2.1310     0.0000    -0.4060 cc         1 ES4       0.437700
     10 N09         -0.9550     0.0060    -0.9620 nd         1 ES4      -0.570100
     11 H04          1.9270     0.0000     3.2320 h5         1 ES4       0.071100
     12 HN07        -2.7570    -0.0050     1.6150 hn         1 ES4       0.318700
     13 H08         -3.0720    -0.0030    -0.9430 h5         1 ES4       0.085800
@<TRIPOS>BOND
     1     1     3 ar
     2     1     7 ar
     3     1    10 1
     4     2     3 1
     5     3     4 ar
     6     4     5 ar
     7     5     6 ar
     8     6     7 ar
     9     7     8 1
    10     8     9 1
    11     9    10 2
    12     5    11 1
    13     8    12 1
    14     9    13 1
@<TRIPOS>SUBSTRUCTURE
     1 ES4         1 TEMP              0 ****  ****    0 ROOT
