@<TRIPOS>MOLECULE
ES4
   13    14     1     0     0
SMALL
bcc


@<TRIPOS>ATOM
      1 C10         0.0110    0.0010   -0.0440 ca        1 ES4     -0.158200
      2 CL01        2.2860    0.0040   -1.4840 cl        1 ES4     -0.106000
      3 C02         1.4260    0.0020   -0.0190 ca        1 ES4      0.582300
      4 N03         2.0930    0.0010    1.1530 nb        1 ES4     -0.706000
      5 C04         1.3510   -0.0010    2.3040 ca        1 ES4      0.655900
      6 N05         0.0080   -0.0020    2.4540 nb        1 ES4     -0.684000
      7 C06        -0.6610   -0.0010    1.2650 ca        1 ES4      0.425800
      8 N07        -2.0300   -0.0020    0.9760 na        1 ES4     -0.378000
      9 C08        -2.1340   -0.0010   -0.4310 cc        1 ES4      0.422700
     10 N09        -0.9500    0.0010   -1.0650 nd        1 ES4     -0.522100
     11 H04         1.9440   -0.0010    3.2440 h5        1 ES4      0.064100
     12 HN07       -2.7640   -0.0030    1.6340 hn        1 ES4      0.323700
     13 H08        -3.1130   -0.0010   -0.9280 h5        1 ES4      0.079800
@<TRIPOS>BOND
     1    1    3 ar  
     2    1    7 ar  
     3    1   10 1   
     4    2    3 1   
     5    3    4 ar  
     6    4    5 ar  
     7    5    6 ar  
     8    5   11 1   
     9    6    7 ar  
    10    7    8 1   
    11    8    9 1   
    12    8   12 1   
    13    9   10 2   
    14    9   13 1   
@<TRIPOS>SUBSTRUCTURE
     1 ES4         1 TEMP              0 ****  ****    0 ROOT
