@<TRIPOS>MOLECULE
molecule
   19    20     1     0     0
SMALL
bcc


@<TRIPOS>ATOM
      1 C10          0.0000     0.0000     0.0000 ca         1 ES5      -0.149300
      2 N01         -0.6760     0.0190    -3.6190 nv         1 ES5      -0.992200
      3 C02          0.0110     0.0120    -2.4020 ca         1 ES5       0.166600
      4 C03          1.4110     0.0120    -2.3950 ca         1 ES5      -0.133000
      5 C04          2.1050     0.0010    -1.2260 ca         1 ES5      -0.161300
      6 C05          1.4170     0.0000     0.0000 ca         1 ES5       0.410600
      7 N06          2.0810     0.0000     1.1610 nb         1 ES5      -0.679000
      8 C07          1.4480    -0.0000     2.3080 ca         1 ES5       0.427200
      9 C08          0.0570    -0.0010     2.3790 ca         1 ES5      -0.257300
     10 C09         -0.6830    -0.0010     1.2320 ca         1 ES5      -0.080000
     11 C11         -0.6960     0.0060    -1.2190 ca         1 ES5      -0.133000
     12 HN01        -0.9490     0.8870    -4.0350 hn         1 ES5       0.428800
     13 HN0A        -0.9030    -0.8460    -4.0690 hn         1 ES5       0.428800
     14 H03          1.9490     0.0210    -3.3350 ha         1 ES5       0.139000
     15 H04          3.1880     0.0010    -1.2400 ha         1 ES5       0.149000
     16 H07          2.0230    -0.0000     3.2270 h4         1 ES5       0.021100
     17 H08         -0.4370    -0.0010     3.3430 ha         1 ES5       0.136000
     18 H09         -1.7660    -0.0020     1.2680 ha         1 ES5       0.139000
     19 H11         -1.7700    -0.1360    -1.2300 ha         1 ES5       0.139000
@<TRIPOS>BOND
     1     1     6 ar
     2     1    10 ar
     3     1    11 ar
     4     2     3 1
     5     3     4 ar
     6     3    11 ar
     7     4     5 ar
     8     5     6 ar
     9     6     7 ar
    10     7     8 ar
    11     8     9 ar
    12     9    10 ar
    13     2    12 1
    14     2    13 1
    15     4    14 1
    16     5    15 1
    17     8    16 1
    18     9    17 1
    19    10    18 1
    20    11    19 1
@<TRIPOS>SUBSTRUCTURE
     1 ES5         1 TEMP              0 ****  ****    0 ROOT
