@<TRIPOS>MOLECULE
ES6
   14    14     1     0     0
SMALL
bcc


@<TRIPOS>ATOM
      1 O01          0.0000     0.0000     0.0000 o          1 ES6      -0.871800
      2 C02          1.2160     0.0000     0.0000 c          1 ES6       0.975800
      3 O03          1.8900     0.0000     1.1670 o          1 ES6      -0.871800
      4 C04          1.9500    -0.0080    -1.2730 cc         1 ES6      -0.184400
      5 C05          1.2650    -0.0150    -2.4870 cd         1 ES6      -0.075000
      6 C06          1.9960    -0.0210    -3.6740 cd         1 ES6      -0.200000
      7 C07          3.3540    -0.0210    -3.6390 cc         1 ES6      -0.202400
      8 N08          4.0260    -0.0150    -2.4640 ns         1 ES6       0.043900
      9 C09          3.3690    -0.0020    -1.2880 c          1 ES6       0.563700
     10 O10          3.9920     0.0080    -0.2400 o          1 ES6      -0.639500
     11 H05          0.1820    -0.0150    -2.5070 ha         1 ES6       0.125000
     12 H06          1.4800    -0.0260    -4.6260 ha         1 ES6       0.095000
     13 H07          3.9090    -0.0290    -4.5690 h4         1 ES6       0.097000
     14 HN08         5.0270    -0.0130    -2.4690 hn         1 ES6       0.144500
@<TRIPOS>BOND
     1     1     2 1   
     2     2     3 1   
     3     2     4 1   
     4     4     5 2   
     5     4     9 1   
     6     5     6 1   
     7     5    11 1   
     8     6     7 2   
     9     6    12 1   
    10     7     8 1   
    11     7    13 1   
    12     8     9 1   
    13     8    14 1   
    14     9    10 2   
@<TRIPOS>SUBSTRUCTURE
     1 ES6         1 TEMP              0 ****  ****    0 ROOT
