@<TRIPOS>MOLECULE
ES7
   20    21     1     0     0
SMALL
bcc


@<TRIPOS>ATOM
      1 C10          0.0000     0.0000     0.0000 cc         1 ES7       0.341700
      2 C01          2.2340    -0.0010    -1.1790 c3         1 ES7       0.008600
      3 N02          1.3650     0.0000     0.0000 na         1 ES7       0.254700
      4 C03          1.7750     0.0000     1.3230 ca         1 ES7      -0.264200
      5 C04          3.0130     0.0010     1.9460 ca         1 ES7      -0.082000
      6 C05          3.0900     0.0010     3.3240 ca         1 ES7      -0.111000
      7 C06          1.9350     0.0030     4.0920 ca         1 ES7      -0.111000
      8 C07          0.6970     0.0020     3.4900 ca         1 ES7      -0.061000
      9 C08          0.6020     0.0010     2.0970 ca         1 ES7       0.109400
     10 N09         -0.4470     0.0020     1.2320 nd         1 ES7      -0.608100
     11 N11         -0.7920     0.0050    -1.1290 nv         1 ES7      -0.486800
     12 H01          2.7430     0.9520    -1.2530 h1         1 ES7       0.016700
     13 H01A         2.9660    -0.7950    -1.0870 h1         1 ES7       0.016700
     14 H01B         1.6370    -0.1610    -2.0680 h1         1 ES7       0.016700
     15 H04          3.9200     0.0000     1.3530 ha         1 ES7       0.096000
     16 H05          4.0580     0.0020     3.8090 ha         1 ES7       0.101000
     17 H06          2.0080     0.0030     5.1730 ha         1 ES7       0.101000
     18 H07         -0.2020     0.0030     4.0950 ha         1 ES7       0.109000
     19 HN11        -1.7870    -0.0470    -1.0420 hn         1 ES7       0.275300
     20 HN1A        -0.3720     0.0860    -2.0340 hn         1 ES7       0.275300
@<TRIPOS>BOND
     1     1     3 1   
     2     1    10 2   
     3     1    11 1   
     4     2     3 1   
     5     2    12 1   
     6     2    13 1   
     7     2    14 1   
     8     3     4 1   
     9     4     5 ar  
    10     4     9 ar  
    11     5     6 ar  
    12     5    15 1   
    13     6     7 ar  
    14     6    16 1   
    15     7     8 ar  
    16     7    17 1   
    17     8     9 ar  
    18     8    18 1   
    19     9    10 1   
    20    11    19 1   
    21    11    20 1   
@<TRIPOS>SUBSTRUCTURE
     1 ES7         1 TEMP              0 ****  ****    0 ROOT
