@<TRIPOS>MOLECULE
ES8
   29    31     1     0     0
SMALL
bcc


@<TRIPOS>ATOM
      1 O19          0.0000     0.0000     0.0000 o          1 ES8      -0.884800
      2 C17          1.2080     0.0000     0.0000 c          1 ES8       0.978600
      3 O18          1.8800     0.0000     1.1620 o          1 ES8      -0.884800
      4 C16          1.9610    -0.0050    -1.3050 c3         1 ES8       0.099400
      5 O15          1.0330    -0.0100    -2.3920 os         1 ES8      -0.141300
      6 N14          1.6410    -0.0160    -3.6690 n2         1 ES8      -0.340200
      7 C07          0.9040    -0.0210    -4.7410 cc         1 ES8       0.405500
      8 C03          1.3850    -0.0260    -6.1430 ca         1 ES8      -0.123900
      9 C04          2.6610    -0.0280    -6.6950 ca         1 ES8      -0.057500
     10 C05          2.8190    -0.0340    -8.0680 ca         1 ES8      -0.110000
     11 C06          1.7110    -0.0380    -8.8980 ca         1 ES8      -0.116000
     12 C01          0.4370    -0.0360    -8.3650 ca         1 ES8      -0.090000
     13 C08         -0.5780    -0.0280    -4.7930 ca         1 ES8      -0.123900
     14 C13         -1.5490    -0.0310    -3.7970 ca         1 ES8      -0.057500
     15 C12         -2.8870    -0.0390    -4.1420 ca         1 ES8      -0.110000
     16 C11         -3.2660    -0.0410    -5.4720 ca         1 ES8      -0.116000
     17 C10         -2.3130    -0.0380    -6.4720 ca         1 ES8      -0.090000
     18 C09         -0.9600    -0.0310    -6.1440 cp         1 ES8      -0.039000
     19 C02          0.2600    -0.0300    -6.9830 cp         1 ES8      -0.039000
     20 H2           2.5850    -0.8890    -1.3590 h1         1 ES8      -0.002300
     21 H3           2.5830     0.8800    -1.3670 h1         1 ES8      -0.002300
     22 H4           3.5310    -0.0250    -6.0490 ha         1 ES8       0.135500
     23 H5           3.8140    -0.0350    -8.4960 ha         1 ES8       0.100500
     24 H6           1.8450    -0.0430    -9.9730 ha         1 ES8       0.092500
     25 H7          -0.4250    -0.0390    -9.0210 ha         1 ES8       0.094500
     26 H8          -1.2570    -0.0290    -2.7540 ha         1 ES8       0.135500
     27 H9          -3.6430    -0.0410    -3.3660 ha         1 ES8       0.100500
     28 H10         -4.3180    -0.0470    -5.7310 ha         1 ES8       0.092500
     29 H11         -2.6190    -0.0400    -7.5110 ha         1 ES8       0.094500
@<TRIPOS>BOND
     1     1     2 1   
     2     2     3 1   
     3     2     4 1   
     4     4     5 1   
     5     4    20 1   
     6     4    21 1   
     7     5     6 1   
     8     6     7 2   
     9     7     8 1   
    10     7    13 1   
    11     8     9 ar  
    12     8    19 ar  
    13     9    10 ar  
    14     9    22 1   
    15    10    11 ar  
    16    10    23 1   
    17    11    12 ar  
    18    11    24 1   
    19    12    19 ar  
    20    12    25 1   
    21    13    14 ar  
    22    13    18 ar  
    23    14    15 ar  
    24    14    26 1   
    25    15    16 ar  
    26    15    27 1   
    27    16    17 ar  
    28    16    28 1   
    29    17    18 ar  
    30    17    29 1   
    31    18    19 1   
@<TRIPOS>SUBSTRUCTURE
     1 ES8         1 TEMP              0 ****  ****    0 ROOT
