@<TRIPOS>MOLECULE
molecule
   29    31     1     0     0
SMALL
bcc


@<TRIPOS>ATOM
      1 O19          0.0000     0.0000     0.0000 o          1 ES8      -0.829300
      2 C17          1.2080     0.0000     0.0000 c          1 ES8       0.898600
      3 O18          1.8800     0.0000     1.1620 o          1 ES8      -0.829300
      4 C16          1.9610    -0.0050    -1.3050 c3         1 ES8       0.024400
      5 O15          1.0330    -0.0100    -2.3920 os         1 ES8      -0.153300
      6 N14          1.6410    -0.0160    -3.6690 n2         1 ES8      -0.398200
      7 C07          0.9040    -0.0210    -4.7410 cc         1 ES8       0.430500
      8 C03          1.3850    -0.0260    -6.1430 ca         1 ES8      -0.121900
      9 C04          2.6610    -0.0280    -6.6950 ca         1 ES8      -0.082500
     10 C05          2.8190    -0.0340    -8.0680 ca         1 ES8      -0.135500
     11 C06          1.7110    -0.0380    -8.8980 ca         1 ES8      -0.136500
     12 C01          0.4370    -0.0360    -8.3650 ca         1 ES8      -0.118500
     13 C08         -0.5780    -0.0280    -4.7930 ca         1 ES8      -0.121900
     14 C13         -1.5490    -0.0310    -3.7970 ca         1 ES8      -0.082500
     15 C12         -2.8870    -0.0390    -4.1420 ca         1 ES8      -0.135500
     16 C11         -3.2660    -0.0410    -5.4720 ca         1 ES8      -0.136500
     17 C10         -2.3130    -0.0380    -6.4720 ca         1 ES8      -0.118500
     18 C09         -0.9600    -0.0310    -6.1440 cp         1 ES8      -0.040000
     19 C02          0.2600    -0.0300    -6.9830 cp         1 ES8      -0.040000
     20 H2           2.5850    -0.8890    -1.3590 h1         1 ES8       0.030700
     21 H3           2.5830     0.8800    -1.3670 h1         1 ES8       0.030700
     22 H4           3.5310    -0.0250    -6.0490 ha         1 ES8       0.167500
     23 H5           3.8140    -0.0350    -8.4960 ha         1 ES8       0.128000
     24 H6           1.8450    -0.0430    -9.9730 ha         1 ES8       0.118000
     25 H7          -0.4250    -0.0390    -9.0210 ha         1 ES8       0.120000
     26 H8          -1.2570    -0.0290    -2.7540 ha         1 ES8       0.167500
     27 H9          -3.6430    -0.0410    -3.3660 ha         1 ES8       0.128000
     28 H10         -4.3180    -0.0470    -5.7310 ha         1 ES8       0.118000
     29 H11         -2.6190    -0.0400    -7.5110 ha         1 ES8       0.120000
@<TRIPOS>BOND
     1     1     2 1
     2     4     2 1
     3     4     5 1
     4     2     3 1
     5     5     6 1
     6     6     7 2
     7     9     8 ar
     8     9    10 ar
     9     7     8 1
    10     7    13 1
    11     8    19 ar
    12    10    11 ar
    13    13    14 ar
    14    13    18 ar
    15    14    15 ar
    16    19    18 1
    17    19    12 ar
    18    11    12 ar
    19    18    17 ar
    20    15    16 ar
    21    17    16 ar
    22     4    20 1
    23     4    21 1
    24     9    22 1
    25    10    23 1
    26    11    24 1
    27    12    25 1
    28    14    26 1
    29    15    27 1
    30    16    28 1
    31    17    29 1
@<TRIPOS>SUBSTRUCTURE
     1 ES8         1 TEMP              0 ****  ****    0 ROOT
