@<TRIPOS>MOLECULE
ES9
   15    16     1     0     0
SMALL
bcc


@<TRIPOS>ATOM
      1 C10        -0.0210    0.0200   -0.0370 ca        1 ES9     -0.061000
      2 Cl01        2.2350    0.0250   -1.4680 cl        1 ES9     -0.097400
      3 C02         1.3690    0.0150   -0.0010 ca        1 ES9     -0.005600
      4 C03         2.0950    0.0020    1.2080 ca        1 ES9     -0.107000
      5 C04         1.4490   -0.0070    2.4340 ca        1 ES9     -0.127000
      6 C05         0.0500   -0.0020    2.4300 ca        1 ES9     -0.075200
      7 N06        -0.9050   -0.0070    3.4520 na        1 ES9     -0.288300
      8 C07        -2.1620    0.0030    2.8170 cc        1 ES9      0.422700
      9 N08        -2.0840    0.0140    1.4780 nd        1 ES9     -0.561100
     10 C09        -0.7040    0.0120    1.1860 ca        1 ES9      0.069400
     11 H10        -0.5760    0.0310   -0.9870 ha        1 ES9      0.164000
     12 H03         3.1960   -0.0020    1.1750 ha        1 ES9      0.148000
     13 H04         2.0180   -0.0170    3.3730 ha        1 ES9      0.140000
     14 HN06       -0.7250   -0.0160    4.4190 hn        1 ES9      0.307700
     15 H07        -3.0950    0.0010    3.3940 h5        1 ES9      0.070800
@<TRIPOS>BOND
     1    1    3 ar  
     2    1   10 ar  
     3    1   11 1   
     4    2    3 1   
     5    3    4 ar  
     6    4    5 ar  
     7    4   12 1   
     8    5    6 ar  
     9    5   13 1   
    10    6    7 1   
    11    6   10 ar  
    12    7    8 1   
    13    7   14 1   
    14    8    9 2   
    15    8   15 1   
    16    9   10 1   
@<TRIPOS>SUBSTRUCTURE
     1 ES9         1 TEMP              0 ****  ****    0 ROOT
