@<TRIPOS>MOLECULE
molecule
   15    16     1     0     0
SMALL
bcc


@<TRIPOS>ATOM
      1 C10          0.0000     0.0000     0.0000 ca         1 ES9      -0.062000
      2 Cl01         2.2380     0.0010    -1.5080 cl         1 ES9      -0.107400
      3 C02          1.3770     0.0000     0.0000 ca         1 ES9       0.010400
      4 C03          2.0830     0.0000     1.1960 ca         1 ES9      -0.107000
      5 C04          1.4150    -0.0010     2.4010 ca         1 ES9      -0.120000
      6 C05          0.0260    -0.0020     2.4210 ca         1 ES9      -0.095200
      7 N06         -0.9190    -0.0030     3.4270 na         1 ES9      -0.269300
      8 C07         -2.1430    -0.0050     2.8320 cc         1 ES9       0.432700
      9 N08         -2.0110    -0.0030     1.5390 nd         1 ES9      -0.598100
     10 C09         -0.6930    -0.0010     1.2140 ca         1 ES9       0.097400
     11 H10         -0.5420     0.0980    -0.9330 ha         1 ES9       0.158000
     12 H03          3.1660     0.0000     1.1810 ha         1 ES9       0.147000
     13 H04          1.9710    -0.0010     3.3310 ha         1 ES9       0.133000
     14 HN06        -0.7380    -0.0040     4.4120 hn         1 ES9       0.304700
     15 H07         -3.0900    -0.0070     3.3600 h5         1 ES9       0.075800
@<TRIPOS>BOND
     1     1     3 ar
     2     1    10 ar
     3     2     3 1
     4     3     4 ar
     5     4     5 ar
     6     5     6 ar
     7     6     7 1
     8     6    10 ar
     9     7     8 1
    10     8     9 2
    11     9    10 1
    12     1    11 1
    13     4    12 1
    14     5    13 1
    15     7    14 1
    16     8    15 1
@<TRIPOS>SUBSTRUCTURE
     1 ES9         1 TEMP              0 ****  ****    0 ROOT
