@<TRIPOS>MOLECULE
molecule
   11    10     1     0     0
SMALL
bcc


@<TRIPOS>ATOM
      1 C1           0.0000     0.0000     0.0000 c3         1 ESA      -0.068100
      2 C2           1.5290     0.0000     0.0000 c3         1 ESA      -0.260600
      3 S            2.1350     0.0000     1.7080 s6         1 ESA       1.253800
      4 O1           1.8890     1.2430     2.3510 o          1 ESA      -0.710200
      5 O2           3.6470    -0.0000     1.5400 o          1 ESA      -0.710200
      6 O3           1.8890    -1.2430     2.3510 o          1 ESA      -0.710200
      7 H11         -0.3610     0.8850     0.5110 hc         1 ESA       0.021033
      8 H12         -0.3610    -0.0000    -1.0210 hc         1 ESA       0.021033
      9 H13         -0.3610    -0.8850     0.5110 hc         1 ESA       0.021033
     10 H21          1.8900    -0.8840    -0.5110 h1         1 ESA       0.071700
     11 H22          1.8900     0.8840    -0.5110 h1         1 ESA       0.071700
@<TRIPOS>BOND
     1     1     2 1
     2     1     7 1
     3     1     8 1
     4     1     9 1
     5     2     3 1
     6     2    10 1
     7     2    11 1
     8     3     4 1
     9     3     5 1
    10     3     6 1
@<TRIPOS>SUBSTRUCTURE
     1 ESA         1 TEMP              0 ****  ****    0 ROOT
