@<TRIPOS>MOLECULE
ESD
   16    15     1     0     0
SMALL
bcc


@<TRIPOS>ATOM
      1 N           0.0680   -0.0310   -0.1630 n3        1 ESD     -0.915800
      2 CG          1.9680    0.1880    1.4350 c3        1 ESD     -0.035300
      3 SB          3.7360    0.2000    1.4110 ss        1 ESD     -0.293200
      4 CD          1.4990    0.1390   -0.0100 c3        1 ESD      0.161800
      5 CA          4.0940    0.0250    3.1330 c3        1 ESD     -0.126300
      6 C           5.5620   -0.4120    3.3460 c         1 ESD      0.928600
      7 O           6.4480    0.4850    3.3670 o         1 ESD     -0.827300
      8 OXT         5.7750   -1.6390    3.5480 o         1 ESD     -0.827300
      9 H          -0.2960   -0.6410    0.5430 hn        1 ESD      0.335800
     10 HN2        -0.1330   -0.4290   -1.0590 hn        1 ESD      0.335800
     11 HG1         1.6010   -0.6990    2.0080 h1        1 ESD      0.049200
     12 HG2         1.5720    1.0990    1.9450 h1        1 ESD      0.049200
     13 HD2         2.0780   -0.6780   -0.5350 h1        1 ESD      0.038700
     14 HD1         1.7660    1.1120   -0.5140 h1        1 ESD      0.038700
     15 HA2         3.9310    0.9970    3.6500 h1        1 ESD      0.042200
     16 HA1         3.4280   -0.7470    3.5830 h1        1 ESD      0.042200
@<TRIPOS>BOND
     1    1    4 1
     2    1    9 1
     3    1   10 1
     4    2    3 1
     5    2    4 1
     6    2   11 1
     7    2   12 1
     8    3    5 1
     9    4   13 1
    10    4   14 1
    11    5    6 1
    12    5   15 1
    13    5   16 1
    14    6    7 1
    15    6    8 1
@<TRIPOS>SUBSTRUCTURE
     1 ESD         1 TEMP              0 ****  ****    0 ROOT
