@<TRIPOS>MOLECULE
ESE
   40    42     1     0     0
SMALL
bcc


@<TRIPOS>ATOM
      1 C01         0.1550   -0.0880   -0.0980 ca        1 ESE     -0.184000
      2 C02         1.5560   -0.0910    0.0060 ca        1 ESE      0.120100
      3 C03         2.1810   -0.0800    1.2600 ca        1 ESE     -0.184000
      4 C04         1.3970   -0.0660    2.4110 ca        1 ESE     -0.091000
      5 C05         0.0000   -0.0630    2.3270 ca        1 ESE     -0.108300
      6 C06        -0.6070   -0.0740    1.0640 ca        1 ESE     -0.091000
      7 C07        -0.8220   -0.0480    3.5750 c3        1 ESE     -0.015400
      8 C08        -1.6810    1.2050    3.6520 c3        1 ESE     -0.067400
      9 C09        -2.4740    1.2830    4.9460 c3        1 ESE     -0.059700
     10 C10        -3.2140   -0.0210    5.3150 c3        1 ESE     -0.039000
     11 C11        -2.4570   -1.2980    4.9830 c3        1 ESE     -0.068400
     12 C12        -1.7230   -1.2730    3.6620 c3        1 ESE     -0.071400
     13 C13        -3.5830    2.3340    4.8040 c3        1 ESE     -0.074400
     14 C14        -4.8550    1.5890    4.4220 c3        1 ESE     -0.116400
     15 C15        -4.5390    0.0890    4.5190 c3        1 ESE      0.141100
     16 C16        -3.5100   -0.0200    6.8100 c3        1 ESE     -0.079100
     17 O01         2.2610   -0.1040   -1.1770 oh        1 ESE     -0.498100
     18 O02        -5.5530   -0.6360    5.1930 oh        1 ESE     -0.593800
     19 H1         -0.3150   -0.0970   -1.0910 ha        1 ESE      0.141000
     20 H2          3.2770   -0.0820    1.3340 ha        1 ESE      0.141000
     21 H3          1.8870   -0.0580    3.3970 ha        1 ESE      0.133500
     22 H4         -1.7060   -0.0720    0.9880 ha        1 ESE      0.133500
     23 H5         -0.1310   -0.0580    4.4670 hc        1 ESE      0.053700
     24 H6         -1.0290    2.1140    3.5700 hc        1 ESE      0.043700
     25 H7         -2.3870    1.2180    2.7790 hc        1 ESE      0.043700
     26 H8         -1.7760    1.5590    5.7800 hc        1 ESE      0.055700
     27 H9         -3.1880   -2.1500    4.9870 hc        1 ESE      0.048200
     28 H10        -1.7110   -1.4940    5.8010 hc        1 ESE      0.048200
     29 H11        -1.1070   -2.2040    3.5620 hc        1 ESE      0.043200
     30 H12        -2.4540   -1.2640    2.8110 hc        1 ESE      0.043200
     31 H13        -3.3160    3.1000    4.0350 hc        1 ESE      0.044700
     32 H14        -3.7250    2.8680    5.7770 hc        1 ESE      0.044700
     33 H15        -5.6920    1.8500    5.1170 hc        1 ESE      0.046700
     34 H16        -5.1760    1.8510    3.3840 hc        1 ESE      0.046700
     35 H17        -4.3980   -0.3470    3.4900 h1        1 ESE      0.035700
     36 H18        -2.5610    0.0110    7.3960 hc        1 ESE      0.039033
     37 H19        -4.0790   -0.9420    7.0850 hc        1 ESE      0.039033
     38 H20        -4.1310    0.8690    7.0760 hc        1 ESE      0.039033
     39 H21         3.2040   -0.1070   -0.9610 ho        1 ESE      0.418000
     40 H22        -6.3660   -0.4950    4.6930 ho        1 ESE      0.398000
@<TRIPOS>BOND
     1    1    2 ar  
     2    1    6 ar  
     3    1   19 1   
     4    2    3 ar  
     5    2   17 1   
     6    3    4 ar  
     7    3   20 1   
     8    4    5 ar  
     9    4   21 1   
    10    5    6 ar  
    11    5    7 1   
    12    6   22 1   
    13    7    8 1   
    14    7   12 1   
    15    7   23 1   
    16    8    9 1   
    17    8   24 1   
    18    8   25 1   
    19    9   10 1   
    20    9   13 1   
    21    9   26 1   
    22   10   11 1   
    23   10   15 1   
    24   10   16 1   
    25   11   12 1   
    26   11   27 1   
    27   11   28 1   
    28   12   29 1   
    29   12   30 1   
    30   13   14 1   
    31   13   31 1   
    32   13   32 1   
    33   14   15 1   
    34   14   33 1   
    35   14   34 1   
    36   15   18 1   
    37   15   35 1   
    38   16   36 1   
    39   16   37 1   
    40   16   38 1   
    41   17   39 1   
    42   18   40 1   
@<TRIPOS>SUBSTRUCTURE
     1 ESE         1 TEMP              0 ****  ****    0 ROOT
