@<TRIPOS>MOLECULE
molecule
   40    42     1     0     0
SMALL
bcc


@<TRIPOS>ATOM
      1 C01          0.0000     0.0000     0.0000 ca         1 ESE      -0.150500
      2 C02          1.3880     0.0000     0.0000 ca         1 ESE       0.100100
      3 C03          2.0790     0.0000     1.2020 ca         1 ESE      -0.150500
      4 C04          1.3860     0.0000     2.3970 ca         1 ESE      -0.113000
      5 C05          0.0030     0.0010     2.3940 ca         1 ESE      -0.085300
      6 C06         -0.6890     0.0070     1.1970 ca         1 ESE      -0.113000
      7 C07         -0.7510     0.0010     3.6990 c3         1 ESE      -0.024400
      8 C08         -1.6370     1.2410     3.7790 c3         1 ESE      -0.069400
      9 C09         -2.3820     1.2910     5.1140 c3         1 ESE      -0.063700
     10 C10         -3.1700    -0.0120     5.3430 c3         1 ESE      -0.056000
     11 C11         -2.3410    -1.2550     5.1180 c3         1 ESE      -0.068400
     12 C12         -1.6400    -1.2460     3.7790 c3         1 ESE      -0.074400
     13 C13         -3.5320     2.3270     4.9440 c3         1 ESE      -0.078400
     14 C14         -4.5940     1.5700     4.1180 c3         1 ESE      -0.111400
     15 C15         -4.3560     0.0670     4.3710 c3         1 ESE       0.149100
     16 C16         -3.7050    -0.0240     6.7760 c3         1 ESE      -0.071100
     17 O01          2.0680    -0.0010    -1.1760 oh         1 ESE      -0.523100
     18 O02         -5.5160    -0.5230     4.9610 oh         1 ESE      -0.601800
     19 H1          -0.5420     0.0020    -0.9380 ha         1 ESE       0.139500
     20 H2           3.1630    -0.0000     1.2050 ha         1 ESE       0.139500
     21 H3           1.9250    -0.0020     3.3370 ha         1 ESE       0.133000
     22 H4          -1.7720     0.0070     1.1980 ha         1 ESE       0.133000
     23 H5          -0.0530     0.0010     4.5270 hc         1 ESE       0.058700
     24 H6          -2.3580     1.2160     2.9710 hc         1 ESE       0.046700
     25 H7          -1.0190     2.1260     3.6850 hc         1 ESE       0.046700
     26 H8          -1.7320     1.5320     5.9460 hc         1 ESE       0.065700
     27 H9          -2.9900    -2.1210     5.1650 hc         1 ESE       0.046700
     28 H10         -1.5970    -1.3250     5.9020 hc         1 ESE       0.046700
     29 H11         -1.0270    -2.1340     3.6850 hc         1 ESE       0.044700
     30 H12         -2.3760    -1.2180     2.9850 hc         1 ESE       0.044700
     31 H13         -3.1800     3.1970     4.4030 hc         1 ESE       0.047700
     32 H14         -3.9340     2.6090     5.9100 hc         1 ESE       0.047700
     33 H15         -5.5870     1.8480     4.4480 hc         1 ESE       0.049200
     34 H16         -4.4710     1.7920     3.0650 hc         1 ESE       0.049200
     35 H17         -4.1080    -0.4310     3.4420 h1         1 ESE       0.035700
     36 H18         -4.4950     0.7110     6.8730 hc         1 ESE       0.038700
     37 H19         -4.0950    -1.0070     7.0080 hc         1 ESE       0.038700
     38 H20         -2.9020     0.2170     7.4630 hc         1 ESE       0.038700
     39 H21          2.2250    -0.8910    -1.4480 ho         1 ESE       0.418000
     40 H22         -6.0720    -0.8680     4.2820 ho         1 ESE       0.397000
@<TRIPOS>BOND
     1    14    13 1
     2    14    15 1
     3    13     9 1
     4    15    18 1
     5    15    10 1
     6     9     8 1
     7     9    10 1
     8    11    12 1
     9    11    10 1
    10    12     7 1
    11     8     7 1
    12    10    16 1
    13     6     1 ar
    14     6     5 ar
    15     1     2 ar
    16     7     5 1
    17     5     4 ar
    18     2    17 1
    19     2     3 ar
    20     4     3 ar
    21     1    19 1
    22     3    20 1
    23     4    21 1
    24     6    22 1
    25     7    23 1
    26     8    24 1
    27     8    25 1
    28     9    26 1
    29    11    27 1
    30    11    28 1
    31    12    29 1
    32    12    30 1
    33    13    31 1
    34    13    32 1
    35    14    33 1
    36    14    34 1
    37    15    35 1
    38    16    36 1
    39    16    37 1
    40    16    38 1
    41    17    39 1
    42    18    40 1
@<TRIPOS>SUBSTRUCTURE
     1 ESE         1 TEMP              0 ****  ****    0 ROOT
