@<TRIPOS>MOLECULE
ESG
   52    53     1     0     0
SMALL
bcc


@<TRIPOS>ATOM
      1 C1           0.0000     0.0000     0.0000 c2         1 ESG       0.380000
      2 N1           1.9970     1.2000    -0.6920 nz         1 ESG       0.867000
      3 C2           6.0190     1.1940     4.9690 c2         1 ESG       0.176000
      4 N2           5.3640    -0.2270     3.1140 n7         1 ESG       0.033000
      5 N1'         10.0420    -3.7200     2.2960 n          1 ESG       0.052000
      6 O11         -0.6720    -1.1450     0.2010 o          1 ESG      -0.562000
      7 O12         -0.6050     1.0320    -0.1770 o          1 ESG      -0.562000
      8 C2'         10.9540    -3.4710     1.1750 c3         1 ESG      -0.075000
      9 C3'          9.5950    -4.9420     2.6090 c2         1 ESG       0.238000
     10 O31          7.3320     4.0000     8.7290 o          1 ESG      -0.623500
     11 O32          7.3310     1.7920     8.6770 o          1 ESG      -0.623500
     12 C4'          8.6800    -4.8450     3.8090 c3         1 ESG      -0.118000
     13 C5'          8.6740    -3.3380     4.1370 c3         1 ESG      -0.216000
     14 C6'          9.5920    -2.7440     3.0930 c2         1 ESG       0.242000
     15 CA1          1.5070     0.0000     0.0000 c3         1 ESG      -0.348000
     16 CA2          5.8510    -0.2270     4.4950 c3         1 ESG      -0.047000
     17 CB1          2.0160     0.0000     1.4430 c3         1 ESG      -0.034000
     18 CB2          7.1990    -0.9490     4.5610 c3         1 ESG      -0.173000
     19 CD1          4.0420    -0.1250     2.8660 c3         1 ESG       0.323000
     20 OE1          3.2580    -0.0340     3.7860 o          1 ESG      -0.433000
     21 CG1          3.5410    -0.1250     1.4460 c3         1 ESG      -0.437000
     22 SG2          6.9980    -2.6580     3.9900 ss         1 ESG      -0.048000
     23 HN1          1.4930     1.3200    -1.5480 hn         1 ESG       0.006333
     24 HN2          6.0140    -0.2670     2.3540 hn         1 ESG       0.095000
     25 HN3          6.6520     0.6800     6.8400 hn         1 ESG       0.107000
     26 H1'          9.7030    -2.2090    -0.0330 hc         1 ESG       0.052333
     27 H1'A         9.3560    -3.9370    -0.1850 hc         1 ESG       0.052333
     28 H1'B        10.7930    -3.2520    -0.9570 hc         1 ESG       0.052333
     29 H2'         11.5750    -2.6130     1.3980 h1         1 ESG       0.079500
     30 H2'A        11.5810    -4.3410     1.0210 h1         1 ESG       0.079500
     31 H4'          7.6820    -5.1820     3.5540 hc         1 ESG       0.103500
     32 H4'A         9.0810    -5.4130     4.6400 hc         1 ESG       0.103500
     33 H5'          9.0720    -3.1670     5.1300 h1         1 ESG       0.124000
     34 HA2          5.1370    -0.7370     5.1300 h1         1 ESG       0.116000
     35 HA3          7.3370     3.3320     6.0440 h1         1 ESG       0.067500
     36 HA3A         5.6690     3.3320     6.6330 h1         1 ESG       0.067500
     37 HB1          1.5840    -0.8370     1.9780 hc         1 ESG       0.100500
     38 HB1A         1.7290     0.9260     1.9270 hc         1 ESG       0.100500
     39 HB2          7.8750    -0.4410     3.8830 h1         1 ESG       0.104500
     40 HB2A         7.7670    -1.2430     5.4350 h1         1 ESG       0.104500
     41 HG1          3.3480    -0.7960     2.2750 DU         1 ESG       0.174000
     42 HG1A         3.9880    -0.7870     0.7130 hc         1 ESG       0.117000
     43 H23          2.9720     1.0960    -0.8910 hn         1 ESG       0.006333
     44 H24          1.8680    -0.8840    -0.5110 hx         1 ESG       0.115000
     45 O2'          9.8690    -1.5670     2.9890 o          1 ESG      -0.338000
     46 C1'         10.1420    -3.1970    -0.0920 c3         1 ESG      -0.132000
     47 N3           6.4600     1.4400     6.2180 ns         1 ESG       0.069000
     48 C3           7.1180     2.8330     8.1020 c2         1 ESG       0.392000
     49 H13          1.8580     2.0010    -0.1090 hn         1 ESG       0.006333
     50 O2           5.7570     2.1150     4.2260 o          1 ESG      -0.443000
     51 O1'          9.8810    -5.9660     2.0240 o          1 ESG      -0.351000
     52 CA3          6.6230     2.8210     6.6790 c3         1 ESG      -0.145000
@<TRIPOS>BOND
     1     1     6 1   
     2     1     7 1   
     3     1    15 1   
     4     2    15 1   
     5     2    23 1   
     6     2    43 1   
     7     2    49 1   
     8     3    16 1   
     9     3    47 1   
    10     3    50 1   
    11     4    16 1   
    12     4    19 1   
    13     4    24 1   
    14     5     8 1   
    15     5     9 1   
    16     5    14 1   
    17     8    29 1   
    18     8    30 1   
    19     8    46 1   
    20     9    12 1   
    21     9    51 1   
    22    10    48 1   
    23    11    48 1   
    24    12    13 1   
    25    12    31 1   
    26    12    32 1   
    27    13    14 1   
    28    13    22 1   
    29    13    33 1   
    30    14    45 1   
    31    15    17 1   
    32    15    44 1   
    33    16    18 1   
    34    16    34 1   
    35    17    21 1   
    36    17    37 1   
    37    17    38 1   
    38    18    22 1   
    39    18    39 1   
    40    18    40 1   
    41    19    20 1   
    42    19    21 1   
    43    19    41 1   
    44    21    41 1   
    45    21    42 1   
    46    25    47 1   
    47    26    46 1   
    48    27    46 1   
    49    28    46 1   
    50    35    52 1   
    51    36    52 1   
    52    47    52 1   
    53    48    52 1   
@<TRIPOS>SUBSTRUCTURE
     1 ESG         1 TEMP              0 ****  ****    0 ROOT
