@<TRIPOS>MOLECULE
molecule
   52    52     1     0     0
SMALL
bcc


@<TRIPOS>ATOM
      1 C1           0.0000     0.0000     0.0000 c          1 ESG       0.870600
      2 N1           1.9970     1.2000    -0.6920 nz         1 ESG      -0.785600
      3 C2           6.0190     1.1940     4.9690 c          1 ESG       0.634100
      4 N2           5.3640    -0.2270     3.1140 ns         1 ESG      -0.562900
      5 N1'         10.0420    -3.7200     2.2960 n          1 ESG      -0.485400
      6 O11         -0.6720    -1.1450     0.2010 o          1 ESG      -0.782300
      7 O12         -0.6050     1.0320    -0.1770 o          1 ESG      -0.782300
      8 C2'         10.9540    -3.4710     1.1750 c3         1 ESG       0.097000
      9 C3'          9.5950    -4.9420     2.6090 c          1 ESG       0.707500
     10 O31          7.3320     4.0000     8.7290 o          1 ESG      -0.842800
     11 O32          7.3310     1.7920     8.6770 o          1 ESG      -0.842800
     12 C4'          8.6800    -4.8450     3.8090 c3         1 ESG      -0.151400
     13 C5'          8.6740    -3.3380     4.1370 c3         1 ESG      -0.076600
     14 C6'          9.5920    -2.7440     3.0930 c          1 ESG       0.707500
     15 CA1          1.5070     0.0000     0.0000 c3         1 ESG      -0.011500
     16 CA2          5.8510    -0.2270     4.4950 c3         1 ESG       0.068700
     17 CB1          2.0160     0.0000     1.4430 c3         1 ESG      -0.044400
     18 CB2          7.1990    -0.9490     4.5610 c3         1 ESG       0.017700
     19 CD1          4.0420    -0.1250     2.8660 c          1 ESG       0.735100
     20 OE1          3.2580    -0.0340     3.7860 o          1 ESG      -0.628100
     21 CG1          3.5410    -0.1250     1.4460 c3         1 ESG      -0.395400
     22 SG2          6.9980    -2.6580     3.9900 ss         1 ESG      -0.357200
     23 HN1          1.4930     1.3200    -1.5480 hn         1 ESG       0.440800
     24 HN2          6.0140    -0.2670     2.3540 hn         1 ESG       0.324500
     25 HN3          6.6520     0.6800     6.8400 hn         1 ESG       0.331500
     26 H1'          9.7030    -2.2090    -0.0330 hc         1 ESG       0.046033
     27 H1'A         9.3560    -3.9370    -0.1850 hc         1 ESG       0.046033
     28 H1'B        10.7930    -3.2520    -0.9570 hc         1 ESG       0.046033
     29 H2'         11.5750    -2.6130     1.3980 h1         1 ESG       0.070200
     30 H2'A        11.5810    -4.3410     1.0210 h1         1 ESG       0.070200
     31 H4'          7.6820    -5.1820     3.5540 hc         1 ESG       0.098200
     32 H4'A         9.0810    -5.4130     4.6400 hc         1 ESG       0.098200
     33 H5'          9.0720    -3.1670     5.1300 h1         1 ESG       0.109700
     34 HA2          5.1370    -0.7370     5.1300 h1         1 ESG       0.103700
     35 HA3          7.3370     3.3320     6.0440 h1         1 ESG       0.049200
     36 HA3A         5.6690     3.3320     6.6330 h1         1 ESG       0.049200
     37 HB1          1.5840    -0.8370     1.9780 hc         1 ESG       0.096200
     38 HB1A         1.7290     0.9260     1.9270 hc         1 ESG       0.096200
     39 HB2          7.8750    -0.4410     3.8830 h1         1 ESG       0.091200
     40 HB2A         7.7670    -1.2430     5.4350 h1         1 ESG       0.091200
     41 HG1          3.3480    -0.7960     2.2750 hc         1 ESG       0.123700
     42 HG1A         3.9880    -0.7870     0.7130 hc         1 ESG       0.123700
     43 H23          2.9720     1.0960    -0.8910 hn         1 ESG       0.440800
     44 H24          1.8680    -0.8840    -0.5110 hx         1 ESG       0.092700
     45 O2'          9.8690    -1.5670     2.9890 o          1 ESG      -0.580500
     46 C1'         10.1420    -3.1970    -0.0920 c3         1 ESG      -0.112100
     47 N3           6.4600     1.4400     6.2180 ns         1 ESG      -0.537900
     48 C3           7.1180     2.8330     8.1020 c          1 ESG       0.884600
     49 H13          1.8580     2.0010    -0.1090 hn         1 ESG       0.440800
     50 O2           5.7570     2.1150     4.2260 o          1 ESG      -0.627100
     51 O1'          9.8810    -5.9660     2.0240 o          1 ESG      -0.592500
     52 CA3          6.6230     2.8210     6.6790 c3         1 ESG      -0.005000
@<TRIPOS>BOND
     1     1     6 1
     2     1    15 1
     3     2    23 1
     4     3    16 1
     5     4    19 1
     6     4    24 1
     7    50     3 2
     8    48    52 1
     9    48    11 1
    10    47     3 1
    11    47    25 1
    12    46     8 1
    13    46    26 1
    14    46    27 1
    15    46    28 1
    16     5     9 1
    17     7     1 1
    18     8     5 1
    19     8    29 1
    20     8    30 1
    21    45    14 2
    22     9    51 2
    23     9    12 1
    24    10    48 1
    25    12    31 1
    26    12    32 1
    27    13    12 1
    28    13    33 1
    29    14     5 1
    30    14    13 1
    31    15     2 1
    32    16     4 1
    33    16    18 1
    34    16    34 1
    35    52    47 1
    36    52    35 1
    37    52    36 1
    38    17    15 1
    39    17    21 1
    40    17    37 1
    41    17    38 1
    42    18    22 1
    43    18    39 1
    44    18    40 1
    45    19    21 1
    46    20    19 2
    47    21    41 1
    48    21    42 1
    49    22    13 1
    50     2    43 1
    51    15    44 1
    52    49     2 1
@<TRIPOS>SUBSTRUCTURE
     1 ESG         1 TEMP              0 ****  ****    0 ROOT
