@<TRIPOS>MOLECULE
ESH
   64    68     1     0     0
SMALL
bcc


@<TRIPOS>ATOM
      1 N1          0.9840    1.0000    0.7230 n2        1 ESH     -0.680100
      2 C3          0.8830    0.2390   -0.2840 ce        1 ESH      0.633800
      3 N2         -0.1110   -0.9160   -0.4290 n4        1 ESH     -0.891600
      4 C4          1.7200    0.3110   -1.5020 ca        1 ESH     -0.217900
      5 C9          3.1030    0.1290   -1.3990 ca        1 ESH     -0.089500
      6 C8          3.8810    0.1370   -2.5550 ca        1 ESH     -0.094000
      7 C7          3.2880    0.3170   -3.8130 ca        1 ESH     -0.018300
      8 C6          1.9080    0.5540   -3.8960 ca        1 ESH     -0.094000
      9 C5          1.1240    0.5530   -2.7470 ca        1 ESH     -0.089500
     10 C10         4.1680    0.2620   -5.0390 c3        1 ESH      0.226800
     11 N11         3.6580    1.1230   -6.1160 n3        1 ESH     -0.713600
     12 C12         4.5040    2.2650   -6.4670 c3        1 ESH      0.153800
     13 C13         4.9310    2.1580   -7.9390 c3        1 ESH     -0.098400
     14 C14         4.2260    0.9320   -8.5030 c3        1 ESH     -0.092400
     15 C15         3.4340    0.3120   -7.3340 c3        1 ESH      0.167500
     16 C16         3.8200   -1.1490   -7.0490 c3        1 ESH     -0.087700
     17 C17         2.6190   -2.1370   -7.1150 c3        1 ESH      0.115700
     18 N19         2.4970   -2.7090   -5.7740 n         1 ESH     -0.477800
     19 C20         3.4900   -2.2600   -4.9070 c         1 ESH      0.708500
     20 O21         3.6720   -2.7060   -3.7620 o         1 ESH     -0.643500
     21 C22         4.3240   -1.1810   -5.5890 c3        1 ESH     -0.150700
     22 C23         1.6400   -3.8240   -5.4840 c3        1 ESH      0.149300
     23 C24         0.6560   -3.5820   -4.3670 ca        1 ESH     -0.083300
     24 C32         1.0170   -3.8900   -3.0490 ca        1 ESH     -0.086500
     25 C31         0.1010   -3.7310   -2.0130 ca        1 ESH     -0.152000
     26 C30        -1.1780   -3.2360   -2.2980 ca        1 ESH     -0.035600
     27 C26        -1.5510   -2.9290   -3.6080 ca        1 ESH     -0.152000
     28 C25        -0.6270   -3.1030   -4.6400 ca        1 ESH     -0.086500
     29 C18         2.7680   -3.1620   -8.2580 c3        1 ESH     -0.081700
     30 C41         2.7860   -2.4410   -9.5910 c3        1 ESH     -0.095100
     31 C42         3.9710   -4.0660   -8.1160 c3        1 ESH     -0.095100
     32 CL30       -2.3010   -3.0340   -1.0270 cl        1 ESH     -0.118400
     33 H20         0.4220    0.9110    1.5410 hn        1 ESH      0.454400
     34 H12         0.4100   -1.7740   -0.6590 hn        1 ESH      0.459467
     35 H11        -0.7390   -0.7190   -1.2170 hn        1 ESH      0.459467
     36 H5          3.5790   -0.0180   -0.4170 ha        1 ESH      0.142500
     37 H6          4.9680   -0.0240   -2.4750 ha        1 ESH      0.166000
     38 H8          1.4330    0.7450   -4.8720 ha        1 ESH      0.166000
     39 H9          0.0480    0.7640   -2.8260 ha        1 ESH      0.142500
     40 H10         5.1990    0.6050   -4.7100 h1        1 ESH      0.067700
     41 H121        5.4060    2.3570   -5.8030 h1        1 ESH      0.056200
     42 H122        3.8730    3.1840   -6.3120 h1        1 ESH      0.056200
     43 H132        4.6370    3.0820   -8.4950 hc        1 ESH      0.059200
     44 H131        6.0400    2.0530   -8.0180 hc        1 ESH      0.059200
     45 H141        4.9630    0.2080   -8.9290 hc        1 ESH      0.057200
     46 H142        3.5230    1.2170   -9.3250 hc        1 ESH      0.057200
     47 H15         2.3320    0.3870   -7.5590 h1        1 ESH      0.072700
     48 H16         4.6270   -1.4880   -7.7460 hc        1 ESH      0.088700
     49 H17         1.6650   -1.5640   -7.3200 h1        1 ESH      0.057700
     50 H22         5.3990   -1.4880   -5.5260 hc        1 ESH      0.101700
     51 H231        2.2790   -4.7130   -5.1990 h1        1 ESH      0.068700
     52 H232        1.0610   -4.0910   -6.4150 h1        1 ESH      0.068700
     53 H29         2.0400   -4.2500   -2.8370 ha        1 ESH      0.166000
     54 H28         0.3690   -4.0460   -0.9930 ha        1 ESH      0.153000
     55 H26        -2.5690   -2.5720   -3.8330 ha        1 ESH      0.153000
     56 H25        -0.9230   -2.8690   -5.6760 ha        1 ESH      0.166000
     57 H18         1.8470   -3.8170   -8.2480 hc        1 ESH      0.051700
     58 H323        2.8500   -3.1850  -10.4220 hc        1 ESH      0.043533
     59 H322        3.6630   -1.7530   -9.6680 hc        1 ESH      0.043533
     60 H321        1.8540   -1.8410   -9.7240 hc        1 ESH      0.043533
     61 H333        3.9880   -4.8050   -8.9540 hc        1 ESH      0.043533
     62 H332        4.9250   -3.4870   -8.1490 hc        1 ESH      0.043533
     63 H331        3.9330   -4.6310   -7.1530 hc        1 ESH      0.043533
     64 H23        -0.6720   -1.0790    0.4080 hn        1 ESH      0.459467
@<TRIPOS>BOND
     1    1    2 2   
     2    1   33 1   
     3    2    3 1   
     4    2    4 1   
     5    3   34 1   
     6    3   35 1   
     7    3   64 1   
     8    4    5 ar  
     9    4    9 ar  
    10    5    6 ar  
    11    5   36 1   
    12    6    7 ar  
    13    6   37 1   
    14    7    8 ar  
    15    7   10 1   
    16    8    9 ar  
    17    8   38 1   
    18    9   39 1   
    19   10   11 1   
    20   10   21 1   
    21   10   40 1   
    22   11   12 1   
    23   11   15 1   
    24   12   13 1   
    25   12   41 1   
    26   12   42 1   
    27   13   14 1   
    28   13   43 1   
    29   13   44 1   
    30   14   15 1   
    31   14   45 1   
    32   14   46 1   
    33   15   16 1   
    34   15   47 1   
    35   16   17 1   
    36   16   21 1   
    37   16   48 1   
    38   17   18 1   
    39   17   29 1   
    40   17   49 1   
    41   18   19 1   
    42   18   22 1   
    43   19   20 2   
    44   19   21 1   
    45   21   50 1   
    46   22   23 1   
    47   22   51 1   
    48   22   52 1   
    49   23   24 ar  
    50   23   28 ar  
    51   24   25 ar  
    52   24   53 1   
    53   25   26 ar  
    54   25   54 1   
    55   26   27 ar  
    56   26   32 1   
    57   27   28 ar  
    58   27   55 1   
    59   28   56 1   
    60   29   30 1   
    61   29   31 1   
    62   29   57 1   
    63   30   58 1   
    64   30   59 1   
    65   30   60 1   
    66   31   61 1   
    67   31   62 1   
    68   31   63 1   
@<TRIPOS>SUBSTRUCTURE
     1 ESH         1 TEMP              0 ****  ****    0 ROOT
