@<TRIPOS>MOLECULE
molecule
   64    68     1     0     0
SMALL
bcc


@<TRIPOS>ATOM
      1 N1           0.0000     0.0000     0.0000 n2         1 ESH      -0.742100
      2 C3           1.3170     0.0000     0.0000 ce         1 ESH       0.520800
      3 N2           1.9610     0.0000     1.2320 nz         1 ESH      -0.740600
      4 C4           1.9970    -0.0010    -1.2850 ca         1 ESH      -0.233900
      5 C9           3.3910    -0.0010    -1.3350 ca         1 ESH      -0.101500
      6 C8           4.0450    -0.0030    -2.5680 ca         1 ESH      -0.080000
      7 C7           3.3040    -0.0050    -3.7520 ca         1 ESH      -0.013300
      8 C6           1.9100    -0.0040    -3.6990 ca         1 ESH      -0.080000
      9 C5           1.2560    -0.0030    -2.4670 ca         1 ESH      -0.101500
     10 C10          4.0150    -0.0070    -5.0900 c3         1 ESH       0.218800
     11 N11          3.2380     0.6660    -6.1600 n3         1 ESH      -0.709600
     12 C12          3.5490     2.0910    -6.2990 c3         1 ESH       0.146800
     13 C13          4.7690     2.1810    -7.2060 c3         1 ESH      -0.115400
     14 C14          4.8970     0.8120    -7.8600 c3         1 ESH      -0.106400
     15 C15          3.6410     0.0530    -7.4370 c3         1 ESH       0.156500
     16 C16          3.8630    -1.4120    -7.1000 c3         1 ESH      -0.078700
     17 C17          2.5590    -2.2240    -7.0370 c3         1 ESH       0.120700
     18 N19          2.7280    -3.0610    -5.8640 n          1 ESH      -0.483800
     19 C20          3.7360    -2.6160    -5.0160 c          1 ESH       0.722500
     20 O21          4.0620    -3.0800    -3.9320 o          1 ESH      -0.624500
     21 C22          4.3770    -1.3990    -5.6520 c3         1 ESH      -0.158700
     22 C23          1.8040    -4.1310    -5.5360 c3         1 ESH       0.156300
     23 C24          0.5700    -3.6160    -4.8530 ca         1 ESH      -0.116300
     24 C32          0.5420    -3.5130    -3.4670 ca         1 ESH      -0.101500
     25 C31         -0.6040    -3.0350    -2.8340 ca         1 ESH      -0.132500
     26 C30         -1.7160    -2.6620    -3.5910 ca         1 ESH       0.018400
     27 C26         -1.6790    -2.7680    -4.9810 ca         1 ESH      -0.132500
     28 C25         -0.5330    -3.2470    -5.6150 ca         1 ESH      -0.101500
     29 C18          2.3200    -3.0010    -8.3270 c3         1 ESH      -0.084700
     30 C41          2.1840    -2.0450    -9.5110 c3         1 ESH      -0.090600
     31 C42          3.4490    -3.9990    -8.5700 c3         1 ESH      -0.090600
     32 Cl30        -3.1310    -2.0730    -2.8090 cl         1 ESH      -0.095400
     33 H20         -0.5020    -0.0000    -0.8660 hn         1 ESH       0.483400
     34 H12          2.5350     0.8160     1.3090 hn         1 ESH       0.471800
     35 H11          2.5320    -0.8180     1.3100 hn         1 ESH       0.471800
     36 H5           3.9670    -0.0000    -0.4170 ha         1 ESH       0.125500
     37 H6           5.1280    -0.0030    -2.6070 ha         1 ESH       0.170000
     38 H8           1.3350    -0.0060    -4.6170 ha         1 ESH       0.170000
     39 H9           0.1740    -0.0030    -2.4280 ha         1 ESH       0.125500
     40 H10          4.9410     0.5430    -4.9690 h1         1 ESH       0.052700
     41 H121         3.7760     2.5170    -5.3300 h1         1 ESH       0.060200
     42 H122         2.7120     2.6100    -6.7520 h1         1 ESH       0.060200
     43 H132         5.6540     2.3990    -6.6200 hc         1 ESH       0.057200
     44 H131         4.6170     2.9420    -7.9620 hc         1 ESH       0.057200
     45 H141         5.7820     0.3040    -7.4950 hc         1 ESH       0.057700
     46 H142         4.9300     0.9120    -8.9380 hc         1 ESH       0.057700
     47 H15          2.8580     0.1630    -8.1780 h1         1 ESH       0.089700
     48 H16          4.5840    -1.8690    -7.7680 hc         1 ESH       0.087700
     49 H17          1.7310    -1.5470    -6.8690 h1         1 ESH       0.059700
     50 H22          5.4540    -1.5180    -5.6510 hc         1 ESH       0.091700
     51 H231         1.5160    -4.6400    -6.4480 h1         1 ESH       0.072700
     52 H232         2.3010    -4.8360    -4.8800 h1         1 ESH       0.072700
     53 H29          1.4060    -3.8040    -2.8820 ha         1 ESH       0.147000
     54 H28         -0.6320    -2.9530    -1.7540 ha         1 ESH       0.142000
     55 H26         -2.5420    -2.4790    -5.5680 ha         1 ESH       0.142000
     56 H25         -0.5030    -3.3300    -6.6950 ha         1 ESH       0.147000
     57 H18          1.3930    -3.5520    -8.2260 hc         1 ESH       0.051700
     58 H323         1.7900    -2.5810   -10.3650 hc         1 ESH       0.042700
     59 H322         3.1570    -1.6360    -9.7590 hc         1 ESH       0.042700
     60 H321         1.5100    -1.2380    -9.2480 hc         1 ESH       0.042700
     61 H333         3.8880    -4.2860    -7.6220 hc         1 ESH       0.042700
     62 H332         3.0530    -4.8780    -9.0660 hc         1 ESH       0.042700
     63 H331         4.2070    -3.5430    -9.1950 hc         1 ESH       0.042700
     64 H23          1.2790    -0.0090     1.9650 hn         1 ESH       0.471800
@<TRIPOS>BOND
     1     1     2 2
     2     1    33 1
     3     2     3 1
     4     2     4 1
     5     3    34 1
     6     3    35 1
     7     4     5 ar
     8     4     9 ar
     9     5     6 ar
    10     5    36 1
    11     6     7 ar
    12     6    37 1
    13     7     8 ar
    14     7    10 1
    15     8     9 ar
    16     8    38 1
    17     9    39 1
    18    10    11 1
    19    10    21 1
    20    10    40 1
    21    11    12 1
    22    11    15 1
    23    12    13 1
    24    12    41 1
    25    12    42 1
    26    13    14 1
    27    13    43 1
    28    13    44 1
    29    14    15 1
    30    14    45 1
    31    14    46 1
    32    15    16 1
    33    15    47 1
    34    16    17 1
    35    16    21 1
    36    16    48 1
    37    17    18 1
    38    17    29 1
    39    17    49 1
    40    18    19 1
    41    18    22 1
    42    19    20 2
    43    19    21 1
    44    21    50 1
    45    22    23 1
    46    22    51 1
    47    22    52 1
    48    23    24 ar
    49    23    28 ar
    50    24    25 ar
    51    24    53 1
    52    25    26 ar
    53    25    54 1
    54    26    27 ar
    55    26    32 1
    56    27    28 ar
    57    27    55 1
    58    28    56 1
    59    29    30 1
    60    29    31 1
    61    29    57 1
    62    30    58 1
    63    30    59 1
    64    30    60 1
    65    31    61 1
    66    31    62 1
    67    31    63 1
    68    64     3 1
@<TRIPOS>SUBSTRUCTURE
     1 ESH         1 TEMP              0 ****  ****    0 ROOT
