@<TRIPOS>MOLECULE
ESI
   22    23     1     0     0
SMALL
bcc


@<TRIPOS>ATOM
      1 C0           0.0000     0.0000     0.0000 ce         1 ESI       0.028500
      2 C1           1.4710     0.0000     0.0000 cc         1 ESI      -0.233000
      3 N1          -0.6670     0.5770    -1.0020 nz         1 ESI       0.180400
      4 N2          -0.6680    -0.5780     1.0000 nv         1 ESI       0.297900
      5 S2           2.5830     0.0000     1.3970 ss         1 ESI      -0.110500
      6 C3           4.1170     0.0010     0.5040 ca         1 ESI       0.150900
      7 C4           3.7090     0.0000    -0.8510 ca         1 ESI      -0.153800
      8 C5           2.3190    -0.0060    -1.0620 cd         1 ESI       0.088800
      9 C6           5.4450    -0.0000     0.8720 ca         1 ESI      -0.066000
     10 C7           6.4220    -0.0000    -0.1050 ca         1 ESI       0.104000
     11 C8           6.0510    -0.0010    -1.4440 ca         1 ESI      -0.097000
     12 C9           4.7450     0.0000    -1.8210 ca         1 ESI       0.234900
     13 I9           4.2560    -0.0000    -3.8580 i          1 ESI      -0.062900
     14 HH11        -1.5690     0.8670    -0.6790 hn         1 ESI       0.244800
     15 HH12        -0.7760    -0.0780    -1.7510 hn         1 ESI       0.244800
     16 HH21        -0.1680    -1.0110     1.7520 hn         1 ESI       0.160200
     17 HH22        -1.6690    -0.5780     1.0000 hn         1 ESI       0.160200
     18 H5           2.0580    -0.1270    -2.1060 ha         1 ESI       0.125000
     19 H6           5.7210    -0.0000     1.9190 ha         1 ESI       0.154000
     20 H7           7.4690    -0.0010     0.1710 ha         1 ESI       0.145000
     21 H8           6.8210    -0.0010    -2.2060 ha         1 ESI       0.158000
     22 H13         -0.1550     1.3720    -1.3300 hn         1 ESI       0.244800
@<TRIPOS>BOND
     1     1     2 1   
     2     1     3 1   
     3     1     4 2   
     4     2     5 1   
     5     2     8 2   
     6     3    14 1   
     7     3    15 1   
     8     3    22 1   
     9     4    16 1   
    10     4    17 1   
    11     5     6 1   
    12     6     7 ar  
    13     6     9 ar  
    14     7     8 1   
    15     7    12 ar  
    16     8    18 1   
    17     9    10 ar  
    18     9    19 1   
    19    10    11 ar  
    20    10    20 1   
    21    11    12 ar  
    22    11    21 1   
    23    12    13 1   
@<TRIPOS>SUBSTRUCTURE
     1 ESI         1 TEMP              0 ****  ****    0 ROOT
