@<TRIPOS>MOLECULE
ESJ
   25    27     1     0     0
SMALL
bcc


@<TRIPOS>ATOM
      1 O            0.0000     0.0000     0.0000 o          1 ESJ      -0.864800
      2 C            1.2080     0.0000     0.0000 c          1 ESJ       0.983600
      3 OXT          1.8790     0.0070    -1.1620 o          1 ESJ      -0.864800
      4 CA           1.9620     0.0000     1.3050 c3         1 ESJ      -0.022500
      5 N            1.0770    -0.4350     2.3630 n2         1 ESJ      -0.352900
      6 CB           2.5000     1.4140     1.5760 c3         1 ESJ       0.114700
      7 SAJ          1.7250     1.8590     3.1630 ss         1 ESJ      -0.439300
      8 CAM          0.8410     0.3420     3.3580 ce         1 ESJ       0.335900
      9 CAO         -0.0420     0.0150     4.4980 cc         1 ESJ       0.443900
     10 NAI         -0.6860    -1.0940     4.6370 nd         1 ESJ      -0.424100
     11 CAP         -1.4490    -1.2480     5.7230 ca         1 ESJ       0.072400
     12 CAE         -2.2420    -2.3590     6.0970 ca         1 ESJ      -0.028000
     13 CAD         -2.9590    -2.3390     7.2510 ca         1 ESJ      -0.142000
     14 CAN         -2.9290    -1.2260     8.0900 ca         1 ESJ       0.110100
     15 OAC         -3.6530    -1.2240     9.2410 oh         1 ESJ      -0.502100
     16 CAF         -2.1650    -0.1280     7.7510 ca         1 ESJ      -0.089000
     17 CAQ         -1.4230    -0.1330     6.5710 ca         1 ESJ      -0.018100
     18 SAK         -0.3580     1.0790     5.8620 ss         1 ESJ      -0.217100
     19 HA           2.7960    -0.6880     1.2390 h1         1 ESJ       0.059700
     20 HB1C         3.5790     1.3980     1.6700 h1         1 ESJ       0.054200
     21 HB2C         2.1870     2.0960     0.7950 h1         1 ESJ       0.054200
     22 HAE         -2.2770    -3.2320     5.4580 ha         1 ESJ       0.115000
     23 HAD         -3.5610    -3.1980     7.5210 ha         1 ESJ       0.109000
     24 HAC         -3.1140    -1.5280     9.9520 ho         1 ESJ       0.396000
     25 HAF         -2.1410     0.7370     8.4030 ha         1 ESJ       0.116000
@<TRIPOS>BOND
     1     1     2 1   
     2     2     3 1   
     3     2     4 1   
     4     4     5 1   
     5     4     6 1   
     6     4    19 1   
     7     5     8 2   
     8     6     7 1   
     9     6    20 1   
    10     6    21 1   
    11     7     8 1   
    12     8     9 1   
    13     9    10 2   
    14     9    18 1   
    15    10    11 1   
    16    11    12 ar  
    17    11    17 ar  
    18    12    13 ar  
    19    12    22 1   
    20    13    14 ar  
    21    13    23 1   
    22    14    15 1   
    23    14    16 ar  
    24    15    24 1   
    25    16    17 ar  
    26    16    25 1   
    27    17    18 1   
@<TRIPOS>SUBSTRUCTURE
     1 ESJ         1 TEMP              0 ****  ****    0 ROOT
