@<TRIPOS>MOLECULE
molecule
   65    69     1     0     0
SMALL
bcc


@<TRIPOS>ATOM
      1 C2           0.0000     0.0000     0.0000 c3         1 ESK       0.126400
      2 C3           1.5300     0.0000     0.0000 c3         1 ESK       0.173000
      3 N4           2.0180     0.0000     1.3810 ns         1 ESK      -0.575900
      4 C5           2.1460     1.1620     2.0520 c          1 ESK       0.634100
      5 C7           2.6480     1.1610     3.4720 c3         1 ESK       0.064000
      6 C10          3.4280     4.7330     4.5340 ca         1 ESK      -0.069300
      7 C11          4.0670     5.9360     4.7400 ca         1 ESK      -0.127000
      8 C12          3.4090     6.9710     5.3790 ca         1 ESK      -0.074000
      9 C13          2.0970     6.7990     5.8190 cp         1 ESK      -0.175500
     10 C14          1.4460     5.5870     5.6140 ca         1 ESK      -0.007000
     11 C15          2.1090     4.5480     4.9620 ca         1 ESK      -0.167600
     12 C16          1.6960     3.1770     4.6050 c          1 ESK       0.728100
     13 O17          0.6070     2.6950     4.8460 o          1 ESK      -0.624500
     14 C22         -2.6150    10.3240     7.4430 c3         1 ESK       0.249500
     15 C23         -3.8740    10.6810     6.6480 c3         1 ESK      -0.134400
     16 C24         -4.6540    11.7630     7.4000 c3         1 ESK       0.140900
     17 C26         -3.8330    10.9890     9.5170 c3         1 ESK       0.140900
     18 C27         -3.0200     9.8770     8.8510 c3         1 ESK      -0.134400
     19 C35          2.9560    -3.4850    -2.0150 ca         1 ESK      -0.124000
     20 C36          2.9200    -2.2720    -2.6750 ca         1 ESK      -0.128500
     21 C37          2.4600    -1.1430    -2.0230 ca         1 ESK      -0.111500
     22 O1          -0.4760    -1.2220     0.5690 oh         1 ESK      -0.615800
     23 O6           1.8570     2.2090     1.5110 o          1 ESK      -0.600100
     24 N8           2.6970     2.5380     3.9740 n          1 ESK      -0.478800
     25 C9           3.8520     3.4380     3.8870 c3         1 ESK       0.144300
     26 C18          1.3970     7.9080     6.5100 cp         1 ESK       0.579800
     27 N19          0.0880     8.0880     6.3460 nb         1 ESK      -0.784000
     28 C20         -0.5390     9.0770     6.9620 ca         1 ESK       0.949900
     29 N21         -1.9010     9.2360     6.7690 nu         1 ESK      -0.887900
     30 O25         -4.9750    11.2930     8.7110 os         1 ESK      -0.421600
     31 N28          0.1020     9.9180     7.7610 nb         1 ESK      -0.797000
     32 C29          1.4030     9.7990     7.9720 ca         1 ESK       0.514200
     33 C30          2.0990     8.7760     7.3510 ca         1 ESK      -0.290200
     34 Cl1          3.8050     8.5800     7.6050 cl         1 ESK      -0.093400
     35 C32          2.0320    -1.2290    -0.7110 ca         1 ESK      -0.097300
     36 C33          2.0680    -2.4430    -0.0500 ca         1 ESK      -0.111500
     37 C34          2.5240    -3.5720    -0.7040 ca         1 ESK      -0.128500
     38 H41         -0.3610     0.0900    -1.0170 h1         1 ESK       0.038700
     39 H40         -0.3610     0.8360     0.5870 h1         1 ESK       0.038700
     40 H38          1.8900     0.8850    -0.5100 h1         1 ESK       0.089700
     41 H42          2.2740    -0.8620     1.8210 hn         1 ESK       0.321500
     42 H43          3.6410     0.7300     3.5050 h1         1 ESK       0.077700
     43 H44          1.9790     0.5760     4.0910 h1         1 ESK       0.077700
     44 H47          5.0860     6.0710     4.3990 ha         1 ESK       0.136000
     45 H48          3.9150     7.9150     5.5390 ha         1 ESK       0.157000
     46 H49          0.4270     5.4520     5.9540 ha         1 ESK       0.164000
     47 H51         -1.9740    11.1950     7.5120 h1         1 ESK       0.078700
     48 H52         -3.5900    11.0540     5.6710 hc         1 ESK       0.059450
     49 H53         -4.4940     9.7990     6.5380 hc         1 ESK       0.059450
     50 H54         -5.5690    11.9860     6.8640 h1         1 ESK       0.050200
     51 H55         -4.0470    12.6570     7.4770 h1         1 ESK       0.050200
     52 H57         -3.2170    11.8750     9.6170 h1         1 ESK       0.050200
     53 H56         -4.1600    10.6590    10.4950 h1         1 ESK       0.050200
     54 H58         -3.6230     8.9790     8.7850 hc         1 ESK       0.059450
     55 H59         -2.1300     9.6790     9.4360 hc         1 ESK       0.059450
     56 H63          3.3150    -4.3700    -2.5270 ha         1 ESK       0.130000
     57 H64          3.2570    -2.2040    -3.7020 ha         1 ESK       0.130500
     58 H65          2.4320    -0.1920    -2.5410 ha         1 ESK       0.133500
     59 H39         -1.4180    -1.2040     0.6090 ho         1 ESK       0.405000
     60 H45          4.6930     3.0150     4.4220 h1         1 ESK       0.064700
     61 H46          4.1110     3.6100     2.8490 h1         1 ESK       0.064700
     62 H50         -2.3940     8.6220     6.1500 hn         1 ESK       0.461800
     63 H60          1.9160    10.4920     8.6280 h4         1 ESK       0.039100
     64 H61          1.7300    -2.5110     0.9760 ha         1 ESK       0.133500
     65 H62          2.5520    -4.5240    -0.1870 ha         1 ESK       0.130500
@<TRIPOS>BOND
     1    30    17 1
     2    30    16 1
     3    17    18 1
     4    18    14 1
     5    16    15 1
     6    15    14 1
     7    14    29 1
     8    29    28 1
     9    28    27 ar
    10    28    31 ar
    11    27    26 ar
    12    31    32 ar
    13    26     9 1
    14    26    33 ar
    15    32    33 ar
    16     9    10 ar
    17     9     8 ar
    18    10    11 ar
    19    33    34 1
    20     8     7 ar
    21    11    12 1
    22    11     6 ar
    23    13    12 2
    24     7     6 ar
    25    12    24 1
    26     6    25 1
    27    24    25 1
    28    24     5 1
    29     5     4 1
    30     4     3 1
    31     4    23 2
    32    22     1 1
    33     3     2 1
    34     1     2 1
    35    36    37 ar
    36    36    35 ar
    37     2    35 1
    38    37    19 ar
    39    35    21 ar
    40    19    20 ar
    41    21    20 ar
    42     1    38 1
    43     1    39 1
    44     2    40 1
    45     3    41 1
    46     5    42 1
    47     5    43 1
    48     7    44 1
    49     8    45 1
    50    10    46 1
    51    14    47 1
    52    15    48 1
    53    15    49 1
    54    16    50 1
    55    16    51 1
    56    17    52 1
    57    17    53 1
    58    18    54 1
    59    18    55 1
    60    19    56 1
    61    20    57 1
    62    21    58 1
    63    22    59 1
    64    25    60 1
    65    25    61 1
    66    29    62 1
    67    32    63 1
    68    36    64 1
    69    37    65 1
@<TRIPOS>SUBSTRUCTURE
     1 ESK         1 TEMP              0 ****  ****    0 ROOT
