@<TRIPOS>MOLECULE
ESK
   65    69     1     0     0
SMALL
bcc


@<TRIPOS>ATOM
      1 C2           0.0000     0.0000     0.0000 c3         1 ESK       0.206400
      2 C3           1.5300     0.0000     0.0000 c3         1 ESK       0.076000
      3 N4           2.0180     0.0000     1.3810 ns         1 ESK      -0.183900
      4 C5           2.1460     1.1620     2.0520 c          1 ESK       0.548100
      5 C7           2.6480     1.1610     3.4720 c3         1 ESK       0.016000
      6 C10          3.4280     4.7330     4.5340 ca         1 ESK      -0.080300
      7 C11          4.0670     5.9360     4.7400 ca         1 ESK      -0.087000
      8 C12          3.4090     6.9710     5.3790 ca         1 ESK      -0.075000
      9 C13          2.0970     6.7990     5.8190 cp         1 ESK      -0.182500
     10 C14          1.4460     5.5870     5.6140 ca         1 ESK       0.028000
     11 C15          2.1090     4.5480     4.9620 ca         1 ESK      -0.175600
     12 C16          1.6960     3.1770     4.6050 c          1 ESK       0.665100
     13 O17          0.6070     2.6950     4.8460 o          1 ESK      -0.671500
     14 C22         -2.6150    10.3240     7.4430 c3         1 ESK       0.136500
     15 C23         -3.8740    10.6810     6.6480 c3         1 ESK      -0.082400
     16 C24         -4.6540    11.7630     7.4000 c3         1 ESK       0.220900
     17 C26         -3.8330    10.9890     9.5170 c3         1 ESK       0.220900
     18 C27         -3.0200     9.8770     8.8510 c3         1 ESK      -0.082400
     19 C35          2.9560    -3.4850    -2.0150 ca         1 ESK      -0.097000
     20 C36          2.9200    -2.2720    -2.6750 ca         1 ESK      -0.099500
     21 C37          2.4600    -1.1430    -2.0230 ca         1 ESK      -0.086000
     22 O1          -0.4760    -1.2220     0.5690 oh         1 ESK      -0.599800
     23 O6           1.8570     2.2090     1.5110 o          1 ESK      -0.645100
     24 N8           2.6970     2.5380     3.9740 n          1 ESK      -0.135800
     25 C9           3.8520     3.4380     3.8870 c3         1 ESK       0.111300
     26 C18          1.3970     7.9080     6.5100 cp         1 ESK       0.540800
     27 N19          0.0880     8.0880     6.3460 nb         1 ESK      -0.677000
     28 C20         -0.5390     9.0770     6.9620 ca         1 ESK       0.727900
     29 N21         -1.9010     9.2360     6.7690 nu         1 ESK      -0.471900
     30 O25         -4.9750    11.2930     8.7110 os         1 ESK      -0.409600
     31 N28          0.1020     9.9180     7.7610 nb         1 ESK      -0.699000
     32 C29          1.4030     9.7990     7.9720 ca         1 ESK       0.501200
     33 C30          2.0990     8.7760     7.3510 ca         1 ESK      -0.360200
     34 Cl1          3.8050     8.5800     7.6050 cl         1 ESK       0.008600
     35 C32          2.0320    -1.2290    -0.7110 ca         1 ESK      -0.106300
     36 C33          2.0680    -2.4430    -0.0500 ca         1 ESK      -0.086000
     37 C34          2.5240    -3.5720    -0.7040 ca         1 ESK      -0.099500
     38 H41         -0.3610     0.0900    -1.0170 h1         1 ESK       0.004200
     39 H40         -0.3610     0.8360     0.5870 h1         1 ESK       0.004200
     40 H38          1.8900     0.8850    -0.5100 h1         1 ESK       0.061700
     41 H42          2.2740    -0.8620     1.8210 hn         1 ESK       0.184500
     42 H43          3.6410     0.7300     3.5050 h1         1 ESK       0.040200
     43 H44          1.9790     0.5760     4.0910 h1         1 ESK       0.040200
     44 H47          5.0860     6.0710     4.3990 ha         1 ESK       0.106000
     45 H48          3.9150     7.9150     5.5390 ha         1 ESK       0.128000
     46 H49          0.4270     5.4520     5.9540 ha         1 ESK       0.128000
     47 H51         -1.9740    11.1950     7.5120 h1         1 ESK       0.055700
     48 H52         -3.5900    11.0540     5.6710 hc         1 ESK       0.030200
     49 H53         -4.4940     9.7990     6.5380 hc         1 ESK       0.030200
     50 H54         -5.5690    11.9860     6.8640 h1         1 ESK       0.008950
     51 H55         -4.0470    12.6570     7.4770 h1         1 ESK       0.008950
     52 H57         -3.2170    11.8750     9.6170 h1         1 ESK       0.008950
     53 H56         -4.1600    10.6590    10.4950 h1         1 ESK       0.008950
     54 H58         -3.6230     8.9790     8.7850 hc         1 ESK       0.030200
     55 H59         -2.1300     9.6790     9.4360 hc         1 ESK       0.030200
     56 H63          3.3150    -4.3700    -2.5270 ha         1 ESK       0.102000
     57 H64          3.2570    -2.2040    -3.7020 ha         1 ESK       0.103000
     58 H65          2.4320    -0.1920    -2.5410 ha         1 ESK       0.110000
     59 H39         -1.4180    -1.2040     0.6090 ho         1 ESK       0.395000
     60 H45          4.6930     3.0150     4.4220 h1         1 ESK       0.028700
     61 H46          4.1110     3.6100     2.8490 h1         1 ESK       0.028700
     62 H50         -2.3940     8.6220     6.1500 hn         1 ESK       0.305800
     63 H60          1.9160    10.4920     8.6280 h4         1 ESK      -0.010900
     64 H61          1.7300    -2.5110     0.9760 ha         1 ESK       0.110000
     65 H62          2.5520    -4.5240    -0.1870 ha         1 ESK       0.103000
@<TRIPOS>BOND
     1     1     2 1   
     2     1    22 1   
     3     1    38 1   
     4     1    39 1   
     5     2     3 1   
     6     2    35 1   
     7     2    40 1   
     8     3     4 1   
     9     3    41 1   
    10     4     5 1   
    11     4    23 2   
    12     5    24 1   
    13     5    42 1   
    14     5    43 1   
    15     6     7 ar  
    16     6    11 ar  
    17     6    25 1   
    18     7     8 ar  
    19     7    44 1   
    20     8     9 ar  
    21     8    45 1   
    22     9    10 ar  
    23     9    26 1   
    24    10    11 ar  
    25    10    46 1   
    26    11    12 1   
    27    12    13 2   
    28    12    24 1   
    29    14    15 1   
    30    14    18 1   
    31    14    29 1   
    32    14    47 1   
    33    15    16 1   
    34    15    48 1   
    35    15    49 1   
    36    16    30 1   
    37    16    50 1   
    38    16    51 1   
    39    17    18 1   
    40    17    30 1   
    41    17    52 1   
    42    17    53 1   
    43    18    54 1   
    44    18    55 1   
    45    19    20 ar  
    46    19    37 ar  
    47    19    56 1   
    48    20    21 ar  
    49    20    57 1   
    50    21    35 ar  
    51    21    58 1   
    52    22    59 1   
    53    24    25 1   
    54    25    60 1   
    55    25    61 1   
    56    26    27 ar  
    57    26    33 ar  
    58    27    28 ar  
    59    28    29 1   
    60    28    31 ar  
    61    29    62 1   
    62    31    32 ar  
    63    32    33 ar  
    64    32    63 1   
    65    33    34 1   
    66    35    36 ar  
    67    36    37 ar  
    68    36    64 1   
    69    37    65 1   
@<TRIPOS>SUBSTRUCTURE
     1 ESK         1 TEMP              0 ****  ****    0 ROOT
