@<TRIPOS>MOLECULE
molecule
   45    48     1     0     0
SMALL
bcc


@<TRIPOS>ATOM
      1 C2           0.0000     0.0000     0.0000 c3         1 ESL      -0.019400
      2 C3           1.5210     0.0000     0.0000 c3         1 ESL      -0.075400
      3 C4           2.0660     0.0000     1.4410 c3         1 ESL      -0.062400
      4 C5           1.4930     1.2110     2.1470 c3         1 ESL      -0.067000
      5 C6           1.8330     2.4760     1.3570 c3         1 ESL      -0.080100
      6 C7           1.8810     1.4020     3.6090 c3         1 ESL       0.145100
      7 O1           3.0220     2.2600     3.6880 oh         1 ESL      -0.602800
      8 C8           0.6470     2.0810     4.2840 c3         1 ESL       0.115100
      9 O2           0.2080     1.2750     5.3790 oh         1 ESL      -0.607800
     10 C9          -0.4590     2.1490     3.1950 c3         1 ESL      -0.086400
     11 C10         -0.0500     1.0400     2.2200 c3         1 ESL      -0.063700
     12 C12         -0.5620     1.1820     0.8020 c3         1 ESL      -0.064700
     13 C14         -2.0870     1.1210     0.7180 c3         1 ESL      -0.075400
     14 C15         -2.5010     1.4800    -0.7090 c3         1 ESL      -0.036100
     15 C16         -1.6990     0.7050    -1.7210 ca         1 ESL      -0.060300
     16 C17         -2.1620     0.6850    -3.0300 ca         1 ESL      -0.157000
     17 C18         -1.4700     0.0010    -4.0130 ca         1 ESL       0.102100
     18 O3          -1.9320    -0.0120    -5.2910 oh         1 ESL      -0.523100
     19 C19         -0.3010    -0.6730    -3.6880 ca         1 ESL      -0.152000
     20 C20          0.1560    -0.6570    -2.3880 ca         1 ESL      -0.119000
     21 C21         -0.5580     0.0340    -1.3940 ca         1 ESL      -0.077300
     22 H2          -0.3350    -0.9150     0.4730 hc         1 ESL       0.058700
     23 H31          1.8770    -0.8850    -0.5140 hc         1 ESL       0.048200
     24 H32          1.8770     0.8850    -0.5140 hc         1 ESL       0.048200
     25 H41          3.1470     0.0630     1.4240 hc         1 ESL       0.046200
     26 H42          1.7530    -0.9030     1.9510 hc         1 ESL       0.046200
     27 H61          1.4010     3.3380     1.8510 hc         1 ESL       0.042700
     28 H62          1.4300     2.3950     0.3540 hc         1 ESL       0.042700
     29 H63          2.9090     2.5910     1.3050 hc         1 ESL       0.042700
     30 H7           2.0860     0.4450     4.0730 h1         1 ESL       0.056700
     31 HO1          3.5480     2.0150     4.4310 ho         1 ESL       0.399000
     32 H8           0.9040     3.0780     4.6210 h1         1 ESL       0.049700
     33 HO2          0.1120     1.8130     6.1470 ho         1 ESL       0.401000
     34 H91         -1.4310     1.9400     3.6250 hc         1 ESL       0.056200
     35 H92         -0.4490     3.1140     2.7020 hc         1 ESL       0.056200
     36 H10         -0.3040     0.0670     2.6220 hc         1 ESL       0.066700
     37 H12         -0.2090     2.1140     0.3760 hc         1 ESL       0.068700
     38 H141        -2.4130     0.1120     0.9380 hc         1 ESL       0.048700
     39 H142        -2.5070     1.8490     1.4010 hc         1 ESL       0.048700
     40 H151        -3.5470     1.2290    -0.8360 hc         1 ESL       0.053200
     41 H152        -2.3180     2.5360    -0.8640 hc         1 ESL       0.053200
     42 H17         -3.0740     1.2130    -3.2840 ha         1 ESL       0.138000
     43 HO3         -2.5660    -0.7030    -5.3900 ho         1 ESL       0.417000
     44 H19          0.2470    -1.2120    -4.4510 ha         1 ESL       0.139000
     45 H20          1.0680    -1.1820    -2.1310 ha         1 ESL       0.136000
@<TRIPOS>BOND
     1     1     2 1
     2     1    12 1
     3     1    21 1
     4     1    22 1
     5     2     3 1
     6     2    23 1
     7     2    24 1
     8     3     4 1
     9     3    25 1
    10     3    26 1
    11     4     5 1
    12     4     6 1
    13     4    11 1
    14     5    27 1
    15     5    28 1
    16     5    29 1
    17     6     7 1
    18     6     8 1
    19     6    30 1
    20     7    31 1
    21     8     9 1
    22     8    10 1
    23     8    32 1
    24     9    33 1
    25    10    11 1
    26    10    34 1
    27    10    35 1
    28    11    12 1
    29    11    36 1
    30    12    13 1
    31    12    37 1
    32    13    14 1
    33    13    38 1
    34    13    39 1
    35    14    15 1
    36    14    40 1
    37    14    41 1
    38    15    16 ar
    39    15    21 ar
    40    16    17 ar
    41    16    42 1
    42    17    18 1
    43    17    19 ar
    44    18    43 1
    45    19    20 ar
    46    19    44 1
    47    20    21 ar
    48    20    45 1
@<TRIPOS>SUBSTRUCTURE
     1 ESL         1 TEMP              0 ****  ****    0 ROOT
