@<TRIPOS>MOLECULE
ESL
   45    48     1     0     0
SMALL
bcc


@<TRIPOS>ATOM
      1 C2         -0.0050    0.0090   -0.0420 c3        1 ESL     -0.008400
      2 C3          1.5190   -0.0500   -0.0180 c3        1 ESL     -0.071400
      3 C4          2.1190    0.0560    1.3760 c3        1 ESL     -0.063400
      4 C5          1.5760    1.2640    2.1180 c3        1 ESL     -0.044000
      5 C6          2.0670    2.5480    1.4720 c3        1 ESL     -0.080100
      6 C7          1.8960    1.3080    3.6310 c3        1 ESL      0.148100
      7 O1          3.1500    1.9180    3.8550 oh        1 ESL     -0.591800
      8 C8          0.7360    2.1540    4.2370 c3        1 ESL      0.097100
      9 O2          0.3890    1.5440    5.4680 oh        1 ESL     -0.603800
     10 C9         -0.4130    2.1310    3.2110 c3        1 ESL     -0.101400
     11 C10         0.0350    1.1310    2.1540 c3        1 ESL     -0.063700
     12 C12        -0.5410    1.2100    0.7590 c3        1 ESL     -0.048700
     13 C14        -2.0580    1.1650    0.7600 c3        1 ESL     -0.073400
     14 C15        -2.5870    1.3590   -0.6440 c3        1 ESL     -0.037100
     15 C16        -1.8170    0.6240   -1.6870 ca        1 ESL     -0.037300
     16 C17        -2.3690    0.5780   -2.9710 ca        1 ESL     -0.162000
     17 C18        -1.6810   -0.0750   -4.0010 ca        1 ESL      0.123100
     18 O3         -2.2840   -0.0800   -5.2390 oh        1 ESL     -0.499100
     19 C19        -0.4440   -0.6840   -3.7570 ca        1 ESL     -0.215000
     20 C20         0.0930   -0.6330   -2.4740 ca        1 ESL     -0.091000
     21 C21        -0.5740    0.0150   -1.4280 ca        1 ESL     -0.099300
     22 H2         -0.3860   -0.9300    0.4620 hc        1 ESL      0.055700
     23 H31         1.8530   -1.0300   -0.4530 hc        1 ESL      0.044200
     24 H32         1.9300    0.7640   -0.6690 hc        1 ESL      0.044200
     25 H41         3.2350    0.1340    1.2930 hc        1 ESL      0.047200
     26 H42         1.8870   -0.8760    1.9560 hc        1 ESL      0.047200
     27 H61         1.8270    2.5780    0.3840 hc        1 ESL      0.041700
     28 H62         3.1760    2.6230    1.5940 hc        1 ESL      0.041700
     29 H63         1.5990    3.4330    1.9670 hc        1 ESL      0.041700
     30 H7          1.8840    0.2750    4.0720 h1        1 ESL      0.058700
     31 HO1         3.2920    1.8960    4.8100 ho        1 ESL      0.408000
     32 H8          1.0830    3.2060    4.4250 h1        1 ESL      0.048700
     33 HO2        -0.3940    2.0000    5.7980 ho        1 ESL      0.403000
     34 H91        -1.3730    1.8140    3.6870 hc        1 ESL      0.050700
     35 H92        -0.5600    3.1470    2.7680 hc        1 ESL      0.050700
     36 H10        -0.2070    0.1040    2.5590 hc        1 ESL      0.053700
     37 H12        -0.2130    2.1640    0.2630 hc        1 ESL      0.063700
     38 H141       -2.4080    0.1820    1.1710 hc        1 ESL      0.044200
     39 H142       -2.4600    1.9700    1.4290 hc        1 ESL      0.044200
     40 H151       -3.6640    1.0390   -0.6820 hc        1 ESL      0.052700
     41 H152       -2.5610    2.4540   -0.9020 hc        1 ESL      0.052700
     42 H17        -3.3390    1.0510   -3.1820 ha        1 ESL      0.148000
     43 HO3        -1.7050   -0.5610   -5.8480 ho        1 ESL      0.418000
     44 H19         0.0950   -1.1960   -4.5660 ha        1 ESL      0.132000
     45 H20         1.0630   -1.1210   -2.2950 ha        1 ESL      0.134000
@<TRIPOS>BOND
     1    1    2 1   
     2    1   12 1   
     3    1   21 1   
     4    1   22 1   
     5    2    3 1   
     6    2   23 1   
     7    2   24 1   
     8    3    4 1   
     9    3   25 1   
    10    3   26 1   
    11    4    5 1   
    12    4    6 1   
    13    4   11 1   
    14    5   27 1   
    15    5   28 1   
    16    5   29 1   
    17    6    7 1   
    18    6    8 1   
    19    6   30 1   
    20    7   31 1   
    21    8    9 1   
    22    8   10 1   
    23    8   32 1   
    24    9   33 1   
    25   10   11 1   
    26   10   34 1   
    27   10   35 1   
    28   11   12 1   
    29   11   36 1   
    30   12   13 1   
    31   12   37 1   
    32   13   14 1   
    33   13   38 1   
    34   13   39 1   
    35   14   15 1   
    36   14   40 1   
    37   14   41 1   
    38   15   16 ar  
    39   15   21 ar  
    40   16   17 ar  
    41   16   42 1   
    42   17   18 1   
    43   17   19 ar  
    44   18   43 1   
    45   19   20 ar  
    46   19   44 1   
    47   20   21 ar  
    48   20   45 1   
@<TRIPOS>SUBSTRUCTURE
     1 ESL         1 TEMP              0 ****  ****    0 ROOT
