@<TRIPOS>MOLECULE
molecule
   48    51     1     0     0
SMALL
bcc


@<TRIPOS>ATOM
      1 C1           0.0000     0.0000     0.0000 ca         1 ESM      -0.215000
      2 C10          1.3870     0.0000     0.0000 ca         1 ESM      -0.039300
      3 C11          1.3580     0.8040    -2.3710 c3         1 ESM      -0.074400
      4 C12          2.1110     0.7710    -3.7150 c3         1 ESM      -0.063400
      5 C13          3.5110     1.2900    -3.4700 c3         1 ESM      -0.071000
      6 C14          4.2230     0.3130    -2.4940 c3         1 ESM      -0.068700
      7 C15          5.6700     0.8060    -2.5640 c3         1 ESM      -0.073400
      8 C16          5.8650     1.0630    -4.0830 c3         1 ESM      -0.106400
      9 C17          4.4540     1.3200    -4.6670 c3         1 ESM       0.154100
     10 C18          3.4390     2.6820    -2.8380 c3         1 ESM      -0.080100
     11 C2          -0.7050    -0.0040     1.1890 ca         1 ESM       0.102100
     12 C3          -0.0130    -0.0070     2.3960 ca         1 ESM       0.082100
     13 C4           1.3630     0.0020     2.3900 ca         1 ESM      -0.140000
     14 C5           2.0740     0.0000     1.1960 ca         1 ESM      -0.091300
     15 C6           3.5710     0.0430     1.2800 c3         1 ESM      -0.029100
     16 C7           4.2020    -0.3370    -0.0570 c3         1 ESM      -0.075400
     17 C8           3.5370     0.4950    -1.1540 c3         1 ESM      -0.060700
     18 C9           2.0980    -0.0110    -1.3200 c3         1 ESM      -0.020400
     19 O17          4.4050     2.5970    -5.3050 oh         1 ESM      -0.600800
     20 O3          -0.6920    -0.0050     3.5760 oh         1 ESM      -0.504100
     21 O2          -2.0640    -0.0010     1.1800 os         1 ESM      -0.280900
     22 C19         -2.4670     0.0070    -0.1910 c3         1 ESM       0.101700
     23 HC1         -0.5360     0.0020    -0.9410 ha         1 ESM       0.148000
     24 H111         1.2770     1.8300    -2.0340 hc         1 ESM       0.046200
     25 H112         0.3660     0.3890    -2.5090 hc         1 ESM       0.046200
     26 H121         2.1570    -0.2470    -4.0840 hc         1 ESM       0.044200
     27 H122         1.6060     1.4050    -4.4330 hc         1 ESM       0.044200
     28 H14C         4.1410    -0.7100    -2.8420 hc         1 ESM       0.058700
     29 H151         6.3530     0.0400    -2.2150 hc         1 ESM       0.049200
     30 H152         5.7900     1.7240    -2.0010 hc         1 ESM       0.049200
     31 H161         6.4920     1.9340    -4.2340 hc         1 ESM       0.051200
     32 H162         6.3080     0.1930    -4.5530 hc         1 ESM       0.051200
     33 H17C         4.1930     0.5360    -5.3660 h1         1 ESM       0.033700
     34 H181         3.0010     3.3760    -3.5450 hc         1 ESM       0.043033
     35 H182         2.8270     2.6420    -1.9450 hc         1 ESM       0.043033
     36 H183         4.4370     3.0130    -2.5780 hc         1 ESM       0.043033
     37 HC4          1.9010    -0.0000     3.3310 ha         1 ESM       0.140000
     38 HC61         3.9040    -0.6530     2.0410 hc         1 ESM       0.050200
     39 HC62         3.8830     1.0460     1.5470 hc         1 ESM       0.050200
     40 HC71         4.0400    -1.3910    -0.2500 hc         1 ESM       0.046700
     41 HC72         5.2640    -0.1240    -0.0330 hc         1 ESM       0.046700
     42 HC8          3.5330     1.5420    -0.8770 hc         1 ESM       0.071700
     43 HC9          2.1430    -1.0370    -1.6660 hc         1 ESM       0.059700
     44 H17O         4.4830     2.4850    -6.2380 ho         1 ESM       0.398000
     45 HO3         -0.5790     0.8290     4.0010 ho         1 ESM       0.414000
     46 H191        -2.0350    -0.8460    -0.6990 h1         1 ESM       0.043033
     47 H192        -3.5480    -0.0470    -0.2500 h1         1 ESM       0.043033
     48 H193        -2.1250     0.9200    -0.6630 h1         1 ESM       0.043033
@<TRIPOS>BOND
     1     1     2 ar
     2     1    11 ar
     3     1    23 1
     4     2    14 ar
     5     2    18 1
     6     3     4 1
     7     3    18 1
     8     3    24 1
     9     3    25 1
    10     4     5 1
    11     4    26 1
    12     4    27 1
    13     5     6 1
    14     5     9 1
    15     5    10 1
    16     6     7 1
    17     6    17 1
    18     6    28 1
    19     7     8 1
    20     7    29 1
    21     7    30 1
    22     8     9 1
    23     8    31 1
    24     8    32 1
    25     9    19 1
    26     9    33 1
    27    10    34 1
    28    10    35 1
    29    10    36 1
    30    11    12 ar
    31    11    21 1
    32    12    13 ar
    33    12    20 1
    34    13    14 ar
    35    13    37 1
    36    14    15 1
    37    15    16 1
    38    15    38 1
    39    15    39 1
    40    16    17 1
    41    16    40 1
    42    16    41 1
    43    17    18 1
    44    17    42 1
    45    18    43 1
    46    19    44 1
    47    20    45 1
    48    21    22 1
    49    22    46 1
    50    22    47 1
    51    22    48 1
@<TRIPOS>SUBSTRUCTURE
     1 ESM         1 TEMP              0 ****  ****    0 ROOT
