@<TRIPOS>MOLECULE
ESM
   48    51     1     0     0
SMALL
bcc


@<TRIPOS>ATOM
      1 C1          0.0070    0.0140    0.0140 ca        1 ESM     -0.158000
      2 C10         1.4080   -0.0050   -0.0080 ca        1 ESM     -0.069300
      3 C11         1.3920    0.6800   -2.4400 c3        1 ESM     -0.070400
      4 C12         2.1710    0.7690   -3.7440 c3        1 ESM     -0.063400
      5 C13         3.5540    1.3500   -3.5160 c3        1 ESM     -0.044000
      6 C14         4.2660    0.4590   -2.4710 c3        1 ESM     -0.066700
      7 C15         5.7340    0.8490   -2.5790 c3        1 ESM     -0.068400
      8 C16         5.9370    1.1790   -4.0600 c3        1 ESM     -0.117400
      9 C17         4.5360    1.2260   -4.7080 c3        1 ESM      0.141100
     10 C18         3.4560    2.8110   -3.1120 c3        1 ESM     -0.077100
     11 C2         -0.6830   -0.0180    1.2230 ca        1 ESM      0.038100
     12 C3          0.0270   -0.0770    2.4430 ca        1 ESM      0.112100
     13 C4          1.4220   -0.1020    2.4230 ca        1 ESM     -0.142000
     14 C5          2.1140   -0.0650    1.2060 ca        1 ESM     -0.066300
     15 C6          3.6030   -0.0650    1.2760 c3        1 ESM     -0.033100
     16 C7          4.2780   -0.2640   -0.0620 c3        1 ESM     -0.073400
     17 C8          3.5630    0.5360   -1.1350 c3        1 ESM     -0.047700
     18 C9          2.1420   -0.0260   -1.3150 c3        1 ESM     -0.010400
     19 O17         4.3810    2.3310   -5.5800 oh        1 ESM     -0.591800
     20 O3         -0.5920   -0.1200    3.6710 oh        1 ESM     -0.497100
     21 O2         -2.0640   -0.0240    1.3520 os        1 ESM     -0.349900
     22 C19        -2.8000    0.2890    0.1750 c3        1 ESM      0.121700
     23 HC1        -0.5590    0.0530   -0.9280 ha        1 ESM      0.139000
     24 H111        1.1040    1.7100   -2.1010 hc        1 ESM      0.041700
     25 H112        0.4430    0.1200   -2.6550 hc        1 ESM      0.041700
     26 H121        1.6060    1.4100   -4.4690 hc        1 ESM      0.044700
     27 H122        2.2630   -0.2540   -4.1950 hc        1 ESM      0.044700
     28 H14C        4.1870   -0.6110   -2.8270 hc        1 ESM      0.045700
     29 H151        6.4000    0.0130   -2.2530 hc        1 ESM      0.045200
     30 H152        5.9600    1.7370   -1.9380 hc        1 ESM      0.045200
     31 H161        6.4440    2.1680   -4.1780 hc        1 ESM      0.047700
     32 H162        6.5670    0.4040   -4.5590 hc        1 ESM      0.047700
     33 H17C        4.3340    0.2770   -5.2760 h1        1 ESM      0.033700
     34 H181        4.4710    3.2160   -2.8810 hc        1 ESM      0.041367
     35 H182        3.0270    3.4020   -3.9590 hc        1 ESM      0.041367
     36 H183        2.8030    2.9470   -2.2190 hc        1 ESM      0.041367
     37 HC4         1.9700   -0.1490    3.3760 ha        1 ESM      0.151000
     38 HC61        3.9410   -0.8690    1.9850 hc        1 ESM      0.051700
     39 HC62        3.9290    0.9190    1.7140 hc        1 ESM      0.051700
     40 HC71        5.3490    0.0640    0.0030 hc        1 ESM      0.044200
     41 HC72        4.2780   -1.3510   -0.3370 hc        1 ESM      0.044200
     42 HC8         3.5000    1.6070   -0.7970 hc        1 ESM      0.063700
     43 HC9         2.2430   -1.1140   -1.6110 hc        1 ESM      0.055700
     44 H17O        5.0720    2.2490   -6.2480 ho        1 ESM      0.399000
     45 HO3        -1.5490   -0.0680    3.5250 ho        1 ESM      0.435000
     46 H191       -2.6900   -0.5290   -0.5790 h1        1 ESM      0.044700
     47 H192       -3.8570    0.3510    0.5370 h1        1 ESM      0.044700
     48 H193       -2.4690    1.2650   -0.2550 h1        1 ESM      0.044700
@<TRIPOS>BOND
     1    1    2 ar  
     2    1   11 ar  
     3    1   23 1   
     4    2   14 ar  
     5    2   18 1   
     6    3    4 1   
     7    3   18 1   
     8    3   24 1   
     9    3   25 1   
    10    4    5 1   
    11    4   26 1   
    12    4   27 1   
    13    5    6 1   
    14    5    9 1   
    15    5   10 1   
    16    6    7 1   
    17    6   17 1   
    18    6   28 1   
    19    7    8 1   
    20    7   29 1   
    21    7   30 1   
    22    8    9 1   
    23    8   31 1   
    24    8   32 1   
    25    9   19 1   
    26    9   33 1   
    27   10   34 1   
    28   10   35 1   
    29   10   36 1   
    30   11   12 ar  
    31   11   21 1   
    32   12   13 ar  
    33   12   20 1   
    34   13   14 ar  
    35   13   37 1   
    36   14   15 1   
    37   15   16 1   
    38   15   38 1   
    39   15   39 1   
    40   16   17 1   
    41   16   40 1   
    42   16   41 1   
    43   17   18 1   
    44   17   42 1   
    45   18   43 1   
    46   19   44 1   
    47   20   45 1   
    48   21   22 1   
    49   22   46 1   
    50   22   47 1   
    51   22   48 1   
@<TRIPOS>SUBSTRUCTURE
     1 ESM         1 TEMP              0 ****  ****    0 ROOT
