@<TRIPOS>MOLECULE
ESO
   45    47     1     0     0
SMALL
bcc


@<TRIPOS>ATOM
      1 C1          0.0660   -0.5020    0.1600 ca        1 ESO     -0.066000
      2 C2          1.4300   -0.6140    0.2300 ca        1 ESO     -0.300000
      3 C3          2.1210   -0.5650    1.4960 ca        1 ESO      0.314000
      4 O3          3.3850   -0.6670    1.5920 o         1 ESO     -0.543000
      5 P           5.4280   -0.9470    0.6050 p3        1 ESO      2.495000
      6 O1P         4.9280   -1.0190   -0.7880 o         1 ESO     -1.174000
      7 O2P         6.0420    0.3180    1.0730 o         1 ESO     -1.174000
      8 O3P         5.8000   -2.2060    1.2910 o         1 ESO     -1.174000
      9 C4          1.2830   -0.3910    2.6530 ca        1 ESO     -0.331000
     10 C5         -0.0930   -0.2830    2.5550 ca        1 ESO     -0.007000
     11 C6         -0.8540   -0.1350    3.8330 c3        1 ESO     -0.109000
     12 C7         -2.3160    0.2110    3.6490 c3        1 ESO     -0.139000
     13 C8         -2.8970   -0.5990    2.5060 c3        1 ESO     -0.091000
     14 C9         -2.2140   -0.1610    1.1950 c3        1 ESO      0.004000
     15 C10        -0.7410   -0.3400    1.3050 ca        1 ESO     -0.297000
     16 C11        -2.8180   -0.8710   -0.0170 c3        1 ESO     -0.156000
     17 C12        -4.3390   -0.8430   -0.0810 c3        1 ESO     -0.132000
     18 C13        -4.9450   -1.3070    1.2310 c3        1 ESO     -0.094000
     19 C14        -4.3870   -0.3930    2.3490 c3        1 ESO     -0.097000
     20 C15        -5.3270   -0.6180    3.5290 c3        1 ESO     -0.153000
     21 C16        -6.7010   -0.8210    2.8840 c3        1 ESO     -0.220000
     22 C17        -6.4450   -1.1330    1.4190 c2        1 ESO      0.240000
     23 O17        -7.3260   -1.2350    0.5660 o         1 ESO     -0.316000
     24 C18        -4.6640   -2.7890    1.4490 c3        1 ESO     -0.199000
     25 H1         -0.4150   -0.5380   -0.8310 ha        1 ESO      0.071000
     26 H2          2.0500   -0.7440   -0.6690 ha        1 ESO      0.149000
     27 H4          1.7770   -0.3470    3.6310 ha        1 ESO      0.105000
     28 H61        -0.7770   -1.1030    4.4020 hc        1 ESO      0.065000
     29 H62        -0.3690    0.6550    4.4670 hc        1 ESO      0.065000
     30 H71        -2.4280    1.3050    3.4320 hc        1 ESO      0.054500
     31 H72        -2.8840   -0.0010    4.5940 hc        1 ESO      0.054500
     32 H8         -2.6760   -1.6840    2.6940 hc        1 ESO      0.098000
     33 H9         -2.4310    0.9430    1.0640 hc        1 ESO      0.050000
     34 H111       -2.4340   -0.3740   -0.9480 hc        1 ESO      0.086000
     35 H112       -2.4550   -1.9310   -0.0360 hc        1 ESO      0.086000
     36 H121       -4.6900    0.1980   -0.3010 hc        1 ESO      0.071500
     37 H122       -4.6930   -1.5020   -0.9150 hc        1 ESO      0.071500
     38 H14        -4.5390    0.6770    2.0170 hc        1 ESO      0.085000
     39 H151       -5.3270    0.2590    4.2190 hc        1 ESO      0.083000
     40 H152       -5.0220   -1.5180    4.1160 hc        1 ESO      0.083000
     41 H161       -7.2570   -1.6660    3.3570 hc        1 ESO      0.096500
     42 H162       -7.3280    0.1000    2.9680 hc        1 ESO      0.096500
     43 H181       -3.5730   -3.0020    1.3480 hc        1 ESO      0.081333
     44 H182       -5.2160   -3.3890    0.6860 hc        1 ESO      0.081333
     45 H183       -4.9950   -3.1050    2.4680 hc        1 ESO      0.081333
@<TRIPOS>BOND
     1    1    2 1
     2    1   15 1
     3    1   25 1
     4    2    3 1
     5    2   26 1
     6    3    4 1
     7    3    9 1
     8    5    6 1
     9    5    7 1
    10    5    8 1
    11    9   10 1
    12    9   27 1
    13   10   11 1
    14   10   15 1
    15   11   12 1
    16   11   28 1
    17   11   29 1
    18   12   13 1
    19   12   30 1
    20   12   31 1
    21   13   14 1
    22   13   19 1
    23   13   32 1
    24   14   15 1
    25   14   16 1
    26   14   33 1
    27   16   17 1
    28   16   34 1
    29   16   35 1
    30   17   18 1
    31   17   36 1
    32   17   37 1
    33   18   19 1
    34   18   22 1
    35   18   24 1
    36   19   20 1
    37   19   38 1
    38   20   21 1
    39   20   39 1
    40   20   40 1
    41   21   22 1
    42   21   41 1
    43   21   42 1
    44   22   23 1
    45   24   43 1
    46   24   44 1
    47   24   45 1
@<TRIPOS>SUBSTRUCTURE
     1 ESO         1 TEMP              0 ****  ****    0 ROOT
