@<TRIPOS>MOLECULE
molecule
   21    22     1     0     0
SMALL
bcc


@<TRIPOS>ATOM
      1 C0           0.0000     0.0000     0.0000 ce         1 ESP       0.512500
      2 C1           1.4710     0.0000     0.0000 cc         1 ESP      -0.313000
      3 N1          -0.6690    -0.5760     1.0020 nz         1 ESP      -0.773600
      4 N2          -0.6680     0.5770    -1.0020 nv         1 ESP      -0.378100
      5 S2           2.5830     0.0000     1.3960 ss         1 ESP      -0.066900
      6 C3           4.1190    -0.0020     0.5040 ca         1 ESP       0.624600
      7 C4           3.7070    -0.0030    -0.8510 ca         1 ESP      -0.287100
      8 C5           2.3170    -0.0080    -1.0630 cd         1 ESP       0.086800
      9 N6           5.3830    -0.0030     0.8600 nb         1 ESP      -0.650000
     10 C7           6.3480    -0.0050    -0.0400 ca         1 ESP       0.596200
     11 C8           6.0440    -0.0060    -1.3940 ca         1 ESP      -0.256300
     12 C9           4.7480    -0.0050    -1.8160 ca         1 ESP       0.028000
     13 HH11        -0.1710    -1.3870     1.3120 hn         1 ESP       0.507800
     14 HH12        -0.7580     0.0710     1.7600 hn         1 ESP       0.507800
     15 HH21        -1.6680     0.5770    -1.0020 hn         1 ESP       0.359200
     16 HH22        -0.1670     1.0100    -1.7530 hn         1 ESP       0.359200
     17 H5           1.9210    -0.0180    -2.0720 ha         1 ESP       0.166000
     18 H7           7.3830    -0.0060     0.2800 h4         1 ESP       0.088100
     19 H8           6.8460    -0.0080    -2.1230 ha         1 ESP       0.200000
     20 H9           4.5150    -0.0060    -2.8750 ha         1 ESP       0.179000
     21 H13         -1.5900    -0.8160     0.6930 hn         1 ESP       0.507800
@<TRIPOS>BOND
     1     1     2 1
     2     1     3 1
     3     1     4 2
     4     2     5 1
     5     2     8 2
     6     3    13 1
     7     3    14 1
     8     4    15 1
     9     4    16 1
    10     5     6 1
    11     6     7 ar
    12     6     9 ar
    13     7     8 1
    14     7    12 ar
    15     8    17 1
    16     9    10 ar
    17    10    11 ar
    18    10    18 1
    19    11    12 ar
    20    11    19 1
    21    12    20 1
    22    21     3 1
@<TRIPOS>SUBSTRUCTURE
     1 ESP         1 TEMP              0 ****  ****    0 ROOT
