@<TRIPOS>MOLECULE
ESQ
   60    64     1     0     0
SMALL
bcc


@<TRIPOS>ATOM
      1 C2           0.0000     0.0000     0.0000 ca         1 ESQ      -0.360200
      2 C3           1.3850     0.0000     0.0000 ca         1 ESQ       0.502200
      3 N4           2.0320     0.0000     1.1550 nb         1 ESQ      -0.698000
      4 C5           1.3750     0.0010     2.3050 ca         1 ESQ       0.727900
      5 C7           3.5550     0.0000     3.4620 c3         1 ESQ       0.135500
      6 C8           4.0920    -0.6050     4.7620 c3         1 ESQ      -0.082900
      7 C11          5.5950     1.4360     3.3810 c3         1 ESQ       0.220900
      8 C12          4.0650     1.4390     3.3310 c3         1 ESQ      -0.082900
      9 C14         -0.6650     0.0070     1.2290 cp         1 ESQ       0.537800
     10 C15         -2.1470     0.0130     1.2830 cp         1 ESQ      -0.180500
     11 C16         -2.8780     0.7010     0.3130 ca         1 ESQ      -0.072000
     12 C19         -6.3790    -0.1470     1.6970 c3         1 ESQ       0.104300
     13 C22         -8.1030    -2.7560     3.0150 c3         1 ESQ       0.138800
     14 C24         -9.4300    -5.1730     3.1330 c3         1 ESQ       0.122800
     15 C25        -10.6540    -5.6940     3.8930 c3         1 ESQ       0.212400
     16 C27        -11.5530    -3.4770     4.0020 c3         1 ESQ       0.212400
     17 C28        -10.3390    -2.9340     3.2430 c3         1 ESQ       0.122800
     18 C31         -4.2030    -0.6590     2.3450 ca         1 ESQ      -0.182600
     19 Cl1         -0.8880    -0.0010    -1.4910 cl         1 ESQ       0.008600
     20 N6           2.0890     0.0010     3.4900 nu         1 ESQ      -0.469900
     21 C9           5.6210    -0.5290     4.7580 c3         1 ESQ       0.220900
     22 O10          6.0280     0.8320     4.6030 os         1 ESQ      -0.409600
     23 N13          0.0520     0.0010     2.3510 nb         1 ESQ      -0.678000
     24 C17         -4.2590     0.7080     0.3620 ca         1 ESQ      -0.086000
     25 C18         -4.9190     0.0360     1.3660 ca         1 ESQ      -0.085300
     26 N20         -6.4260    -0.9780     2.9050 n          1 ESQ      -0.156800
     27 N23         -9.1720    -3.7810     3.5260 n3         1 ESQ      -0.537600
     28 O26        -11.7700    -4.8400     3.6310 os         1 ESQ      -0.412600
     29 C29         -5.1690    -1.2750     3.2750 c          1 ESQ       0.659100
     30 C32         -2.8090    -0.6730     2.2970 ca         1 ESQ       0.031000
     31 H33          1.9330    -0.0030    -0.9350 h4         1 ESQ      -0.009900
     32 H35          3.9050    -0.5850     2.6210 h1         1 ESQ       0.056700
     33 H37          3.7820    -1.6410     4.8330 hc         1 ESQ       0.030200
     34 H36          3.7060    -0.0480     5.6070 hc         1 ESQ       0.030200
     35 H40          5.9820     0.8700     2.5430 h1         1 ESQ       0.009950
     36 H41          5.9580     2.4560     3.3350 h1         1 ESQ       0.009950
     37 H42          3.7360     1.8530     2.3850 hc         1 ESQ       0.030200
     38 H43          3.6780     2.0350     4.1480 hc         1 ESQ       0.030200
     39 H44         -2.3610     1.2570    -0.4600 ha         1 ESQ       0.128000
     40 H46         -6.8390     0.8140     1.8900 h1         1 ESQ       0.026700
     41 H47         -6.8840    -0.6510     0.8810 h1         1 ESQ       0.026700
     42 H48         -7.2400    -1.5700     4.5860 h1         1 ESQ       0.036700
     43 H49         -8.4870    -0.7380     3.6470 h1         1 ESQ       0.036700
     44 H50         -7.1230    -3.2170     3.0320 h1         1 ESQ       0.003700
     45 H51         -8.3440    -2.4580     2.0020 h1         1 ESQ       0.003700
     46 H53         -9.6220    -5.2170     2.0680 h1         1 ESQ       0.015200
     47 H54        -10.4440    -5.6960     4.9560 h1         1 ESQ       0.013200
     48 H55        -10.8830    -6.6990     3.5620 h1         1 ESQ       0.013200
     49 H57        -12.4280    -2.8900     3.7480 h1         1 ESQ       0.013200
     50 H56        -11.3670    -3.4180     5.0670 h1         1 ESQ       0.013200
     51 H59        -10.5440    -2.9460     2.1800 h1         1 ESQ       0.015200
     52 H58        -10.1360    -1.9200     3.5660 h1         1 ESQ       0.015200
     53 H34          1.6060    -0.0230     4.3660 hn         1 ESQ       0.304800
     54 H39          6.0030    -0.9150     5.6950 h1         1 ESQ       0.009950
     55 H38          6.0080    -1.1170     3.9340 h1         1 ESQ       0.009950
     56 H45         -4.8240     1.2430    -0.3920 ha         1 ESQ       0.107000
     57 H60         -2.2490    -1.2960     2.9830 ha         1 ESQ       0.128000
     58 C21         -7.6430    -1.4150     3.5930 c3         1 ESQ       0.074000
     59 O30         -4.8700    -1.9560     4.2370 o          1 ESQ      -0.661500
     60 H52         -8.5680    -5.7830     3.3770 h1         1 ESQ       0.015200
@<TRIPOS>BOND
     1     1     2 ar  
     2     1     9 ar  
     3     1    19 1   
     4     2     3 ar  
     5     2    31 1   
     6     3     4 ar  
     7     4    20 1   
     8     4    23 ar  
     9     5     6 1   
    10     5     8 1   
    11     5    20 1   
    12     5    32 1   
    13     6    21 1   
    14     6    33 1   
    15     6    34 1   
    16     7     8 1   
    17     7    22 1   
    18     7    35 1   
    19     7    36 1   
    20     8    37 1   
    21     8    38 1   
    22     9    10 1   
    23     9    23 ar  
    24    10    11 ar  
    25    10    30 ar  
    26    11    24 ar  
    27    11    39 1   
    28    12    25 1   
    29    12    26 1   
    30    12    40 1   
    31    12    41 1   
    32    13    27 1   
    33    13    44 1   
    34    13    45 1   
    35    13    58 1   
    36    14    15 1   
    37    14    27 1   
    38    14    46 1   
    39    14    60 1   
    40    15    28 1   
    41    15    47 1   
    42    15    48 1   
    43    16    17 1   
    44    16    28 1   
    45    16    49 1   
    46    16    50 1   
    47    17    27 1   
    48    17    51 1   
    49    17    52 1   
    50    18    25 ar  
    51    18    29 1   
    52    18    30 ar  
    53    20    53 1   
    54    21    22 1   
    55    21    54 1   
    56    21    55 1   
    57    24    25 ar  
    58    24    56 1   
    59    26    29 1   
    60    26    58 1   
    61    29    59 2   
    62    30    57 1   
    63    42    58 1   
    64    43    58 1   
@<TRIPOS>SUBSTRUCTURE
     1 ESQ         1 TEMP              0 ****  ****    0 ROOT
