@<TRIPOS>MOLECULE
molecule
   60    64     1     0     0
SMALL
bcc


@<TRIPOS>ATOM
      1 C2           0.0000     0.0000     0.0000 ca         1 ESQ      -0.290200
      2 C3           1.3850     0.0000     0.0000 ca         1 ESQ       0.515200
      3 N4           2.0320     0.0000     1.1550 nb         1 ESQ      -0.796000
      4 C5           1.3750     0.0010     2.3050 ca         1 ESQ       0.949900
      5 C7           3.5550     0.0000     3.4620 c3         1 ESQ       0.249500
      6 C8           4.0920    -0.6050     4.7620 c3         1 ESQ      -0.134400
      7 C11          5.5950     1.4360     3.3810 c3         1 ESQ       0.140900
      8 C12          4.0650     1.4390     3.3310 c3         1 ESQ      -0.134400
      9 C14         -0.6650     0.0070     1.2290 cp         1 ESQ       0.577800
     10 C15         -2.1470     0.0130     1.2830 cp         1 ESQ      -0.173500
     11 C16         -2.8780     0.7010     0.3130 ca         1 ESQ      -0.072000
     12 C19         -6.3790    -0.1470     1.6970 c3         1 ESQ       0.132300
     13 C22         -8.1030    -2.7560     3.0150 c3         1 ESQ       0.146800
     14 C24         -9.4300    -5.1730     3.1330 c3         1 ESQ       0.141300
     15 C25        -10.6540    -5.6940     3.8930 c3         1 ESQ       0.137400
     16 C27        -11.5530    -3.4770     4.0020 c3         1 ESQ       0.137400
     17 C28        -10.3390    -2.9340     3.2430 c3         1 ESQ       0.141300
     18 C31         -4.2030    -0.6590     2.3450 ca         1 ESQ      -0.173600
     19 Cl1         -0.8880    -0.0010    -1.4910 cl         1 ESQ      -0.092400
     20 N6           2.0890     0.0010     3.4900 nu         1 ESQ      -0.886900
     21 C9           5.6210    -0.5290     4.7580 c3         1 ESQ       0.140900
     22 O10          6.0280     0.8320     4.6030 os         1 ESQ      -0.421600
     23 N13          0.0520     0.0010     2.3510 nb         1 ESQ      -0.784000
     24 C17         -4.2590     0.7080     0.3620 ca         1 ESQ      -0.127000
     25 C18         -4.9190     0.0360     1.3660 ca         1 ESQ      -0.073300
     26 N20         -6.4260    -0.9780     2.9050 n          1 ESQ      -0.489800
     27 N23         -9.1720    -3.7810     3.5260 n3         1 ESQ      -0.745600
     28 O26        -11.7700    -4.8400     3.6310 os         1 ESQ      -0.425600
     29 C29         -5.1690    -1.2750     3.2750 c          1 ESQ       0.721100
     30 C32         -2.8090    -0.6730     2.2970 ca         1 ESQ      -0.005000
     31 H33          1.9330    -0.0030    -0.9350 h4         1 ESQ       0.040100
     32 H35          3.9050    -0.5850     2.6210 h1         1 ESQ       0.079700
     33 H37          3.7820    -1.6410     4.8330 hc         1 ESQ       0.059450
     34 H36          3.7060    -0.0480     5.6070 hc         1 ESQ       0.059450
     35 H40          5.9820     0.8700     2.5430 h1         1 ESQ       0.050700
     36 H41          5.9580     2.4560     3.3350 h1         1 ESQ       0.050700
     37 H42          3.7360     1.8530     2.3850 hc         1 ESQ       0.059450
     38 H43          3.6780     2.0350     4.1480 hc         1 ESQ       0.059450
     39 H44         -2.3610     1.2570    -0.4600 ha         1 ESQ       0.158000
     40 H46         -6.8390     0.8140     1.8900 h1         1 ESQ       0.062700
     41 H47         -6.8840    -0.6510     0.8810 h1         1 ESQ       0.062700
     42 H48         -7.2400    -1.5700     4.5860 h1         1 ESQ       0.068700
     43 H49         -8.4870    -0.7380     3.6470 h1         1 ESQ       0.068700
     44 H50         -7.1230    -3.2170     3.0320 h1         1 ESQ       0.032200
     45 H51         -8.3440    -2.4580     2.0020 h1         1 ESQ       0.032200
     46 H53         -9.6220    -5.2170     2.0680 h1         1 ESQ       0.040200
     47 H54        -10.4440    -5.6960     4.9560 h1         1 ESQ       0.053950
     48 H55        -10.8830    -6.6990     3.5620 h1         1 ESQ       0.053950
     49 H57        -12.4280    -2.8900     3.7480 h1         1 ESQ       0.053950
     50 H56        -11.3670    -3.4180     5.0670 h1         1 ESQ       0.053950
     51 H59        -10.5440    -2.9460     2.1800 h1         1 ESQ       0.040200
     52 H58        -10.1360    -1.9200     3.5660 h1         1 ESQ       0.040200
     53 H34          1.6060    -0.0230     4.3660 hn         1 ESQ       0.461800
     54 H39          6.0030    -0.9150     5.6950 h1         1 ESQ       0.050700
     55 H38          6.0080    -1.1170     3.9340 h1         1 ESQ       0.050700
     56 H45         -4.8240     1.2430    -0.3920 ha         1 ESQ       0.137000
     57 H60         -2.2490    -1.2960     2.9830 ha         1 ESQ       0.164000
     58 C21         -7.6430    -1.4150     3.5930 c3         1 ESQ       0.127000
     59 O30         -4.8700    -1.9560     4.2370 o          1 ESQ      -0.618500
     60 H52         -8.5680    -5.7830     3.3770 h1         1 ESQ       0.040200
@<TRIPOS>BOND
     1    22    21 1
     2    22     7 1
     3    21     6 1
     4     6     5 1
     5     7     8 1
     6     8     5 1
     7     5    20 1
     8    24    11 ar
     9    24    25 ar
    10    11    10 ar
    11    20     4 1
    12    23     4 ar
    13    23     9 ar
    14    25    12 1
    15    25    18 ar
    16    12    26 1
    17     4     3 ar
    18    10     9 1
    19    10    30 ar
    20     9     1 ar
    21     3     2 ar
    22    18    30 ar
    23    18    29 1
    24     2     1 ar
    25     1    19 1
    26    26    58 1
    27    26    29 1
    28    13    58 1
    29    13    27 1
    30    29    59 2
    31    14    27 1
    32    14    15 1
    33    27    17 1
    34    15    28 1
    35    17    16 1
    36    28    16 1
    37     2    31 1
    38     5    32 1
    39     6    33 1
    40     6    34 1
    41     7    35 1
    42     7    36 1
    43     8    37 1
    44     8    38 1
    45    11    39 1
    46    12    40 1
    47    12    41 1
    48    58    42 1
    49    58    43 1
    50    13    44 1
    51    13    45 1
    52    14    60 1
    53    14    46 1
    54    15    47 1
    55    15    48 1
    56    16    49 1
    57    16    50 1
    58    17    51 1
    59    17    52 1
    60    20    53 1
    61    21    54 1
    62    21    55 1
    63    24    56 1
    64    30    57 1
@<TRIPOS>SUBSTRUCTURE
     1 ESQ         1 TEMP              0 ****  ****    0 ROOT
