@<TRIPOS>MOLECULE
molecule
   46    49     1     0     0
SMALL
bcc


@<TRIPOS>ATOM
      1 C1           0.0000     0.0000     0.0000 c          1 ESR       0.568100
      2 C2           1.5110     0.0000     0.0000 c3         1 ESR      -0.179400
      3 C3           2.0070     0.0000     1.4520 c3         1 ESR      -0.057700
      4 C4           1.3730    -1.1670     2.2080 c3         1 ESR      -0.066700
      5 C5          -0.1470    -0.9950     2.2530 c3         1 ESR      -0.075400
      6 C6          -0.7130    -1.0440     0.8300 c3         1 ESR      -0.182400
      7 C10          3.5300    -0.1510     1.4460 c3         1 ESR      -0.076400
      8 C11          4.0560    -0.1930     2.8810 c3         1 ESR      -0.076400
      9 C12          3.4310    -1.3950     3.5940 c3         1 ESR      -0.058700
     10 C13          1.9090    -1.2060     3.6410 c3         1 ESR      -0.060700
     11 C16          3.9140    -1.4310     5.0480 c3         1 ESR      -0.065700
     12 C17          3.2950    -2.7020     5.6910 c3         1 ESR      -0.177000
     13 C19          1.2260    -2.3250     4.4180 c3         1 ESR      -0.082400
     14 C24          5.4180    -1.6590     5.2430 c3         1 ESR      -0.076400
     15 C25          5.4850    -2.2620     6.6730 c3         1 ESR      -0.189400
     16 C26          4.0850    -2.8650     6.9550 c          1 ESR       0.588100
     17 C27          3.5340    -3.9060     4.7780 c3         1 ESR      -0.081100
     18 O1          -0.6200     0.8090    -0.6450 o          1 ESR      -0.521100
     19 C18          1.8070    -2.4600     5.8350 c3         1 ESR      -0.055400
     20 O26          3.7040    -3.3680     7.9840 o          1 ESR      -0.505100
     21 H2C1         1.8730    -0.8870    -0.5060 hc         1 ESR       0.068200
     22 H2C2         1.8730     0.8870    -0.5060 hc         1 ESR       0.068200
     23 H3           1.7360     0.9340     1.9290 hc         1 ESR       0.060700
     24 H4           1.6170    -2.0960     1.7070 hc         1 ESR       0.053700
     25 H5C1        -0.3870    -0.0390     2.7020 hc         1 ESR       0.052200
     26 H5C2        -0.5820    -1.7950     2.8400 hc         1 ESR       0.052200
     27 H6C1        -0.5430    -2.0260     0.4050 hc         1 ESR       0.067700
     28 H6C2        -1.7740    -0.8290     0.8530 hc         1 ESR       0.067700
     29 H101         3.9720     0.6910     0.9280 hc         1 ESR       0.044200
     30 H102         3.7970    -1.0710     0.9400 hc         1 ESR       0.044200
     31 H111         5.1340    -0.2970     2.8690 hc         1 ESR       0.045700
     32 H112         3.7780     0.7190     3.3950 hc         1 ESR       0.045700
     33 H12          3.6860    -2.3160     3.0840 hc         1 ESR       0.064700
     34 H13          1.6880    -0.2610     4.1230 hc         1 ESR       0.054700
     35 H16          3.5910    -0.5440     5.5790 hc         1 ESR       0.063700
     36 H191         1.3660    -3.2600     3.8880 hc         1 ESR       0.046700
     37 H192         0.1670    -2.1090     4.4900 hc         1 ESR       0.046700
     38 H241         5.9560    -0.7200     5.1990 hc         1 ESR       0.051200
     39 H242         5.7970    -2.3630     4.5120 hc         1 ESR       0.051200
     40 H251         6.2380    -3.0390     6.7120 hc         1 ESR       0.070200
     41 H252         5.7060    -1.4840     7.3940 hc         1 ESR       0.070200
     42 H271         4.5950    -4.0060     4.5830 hc         1 ESR       0.044700
     43 H272         3.0070    -3.7610     3.8430 hc         1 ESR       0.044700
     44 H273         3.1700    -4.8040     5.2620 hc         1 ESR       0.044700
     45 H181         1.6360    -1.5460     6.3910 hc         1 ESR       0.053200
     46 H182         1.3460    -3.2990     6.3430 hc         1 ESR       0.053200
@<TRIPOS>BOND
     1     1     2 1
     2     1     6 1
     3     1    18 2
     4     2     3 1
     5     2    21 1
     6     2    22 1
     7     3     4 1
     8     3     7 1
     9     3    23 1
    10     4     5 1
    11     4    10 1
    12     4    24 1
    13     5     6 1
    14     5    25 1
    15     5    26 1
    16     6    27 1
    17     6    28 1
    18     7     8 1
    19     7    29 1
    20     7    30 1
    21     8     9 1
    22     8    31 1
    23     8    32 1
    24     9    10 1
    25     9    11 1
    26     9    33 1
    27    10    13 1
    28    10    34 1
    29    11    12 1
    30    11    14 1
    31    11    35 1
    32    12    16 1
    33    12    17 1
    34    12    19 1
    35    13    19 1
    36    13    36 1
    37    13    37 1
    38    14    15 1
    39    14    38 1
    40    14    39 1
    41    15    16 1
    42    15    40 1
    43    15    41 1
    44    16    20 2
    45    17    42 1
    46    17    43 1
    47    17    44 1
    48    19    45 1
    49    19    46 1
@<TRIPOS>SUBSTRUCTURE
     1 ESR         1 TEMP              0 ****  ****    0 ROOT
