@<TRIPOS>MOLECULE
ESR
   46    49     1     0     0
SMALL
bcc


@<TRIPOS>ATOM
      1 C1         -0.0150    0.1370   -0.0470 c         1 ESR      0.570100
      2 C2          1.4850    0.0700    0.0030 c3        1 ESR     -0.180400
      3 C3          1.9970   -0.0070    1.4320 c3        1 ESR     -0.054700
      4 C4          1.3370   -1.1630    2.1910 c3        1 ESR     -0.058700
      5 C5         -0.1740   -0.9850    2.1830 c3        1 ESR     -0.071400
      6 C6         -0.7310   -0.8930    0.7780 c3        1 ESR     -0.182400
      7 C10         3.5110   -0.1470    1.4220 c3        1 ESR     -0.074400
      8 C11         4.0590   -0.2510    2.8280 c3        1 ESR     -0.074400
      9 C12         3.4150   -1.4140    3.5640 c3        1 ESR     -0.047700
     10 C13         1.8880   -1.2250    3.6190 c3        1 ESR     -0.054700
     11 C16         3.9150   -1.5210    4.9870 c3        1 ESR     -0.063700
     12 C17         3.3260   -2.7730    5.6780 c3        1 ESR     -0.153000
     13 C19         1.2020   -2.3110    4.4400 c3        1 ESR     -0.074400
     14 C24         5.4100   -1.5940    5.2760 c3        1 ESR     -0.072400
     15 C25         5.4900   -2.1860    6.6860 c3        1 ESR     -0.188400
     16 C26         4.1370   -2.8120    6.9690 c         1 ESR      0.577100
     17 C27         3.6260   -4.0800    4.9540 c3        1 ESR     -0.082100
     18 O1         -0.6160    0.9590   -0.7440 o         1 ESR     -0.531100
     19 C18         1.8290   -2.5650    5.8030 c3        1 ESR     -0.056400
     20 O26         3.7770   -3.2740    8.0470 o         1 ESR     -0.519100
     21 H2C1        1.8090   -0.8400   -0.5700 hc        1 ESR      0.069700
     22 H2C2        1.9240    0.9680   -0.5070 hc        1 ESR      0.069700
     23 H3          1.7320    0.9530    1.9590 hc        1 ESR      0.056700
     24 H4          1.5890   -2.1270    1.6680 hc        1 ESR      0.050700
     25 H5C1       -0.6600   -1.8560    2.6960 hc        1 ESR      0.049700
     26 H5C2       -0.4440   -0.0600    2.7580 hc        1 ESR      0.049700
     27 H6C1       -0.6190   -1.8830    0.2580 hc        1 ESR      0.069200
     28 H6C2       -1.8260   -0.6540    0.8200 hc        1 ESR      0.069200
     29 H101        3.9620    0.7410    0.9060 hc        1 ESR      0.043700
     30 H102        3.8000   -1.0590    0.8360 hc        1 ESR      0.043700
     31 H111        3.8670    0.7040    3.3840 hc        1 ESR      0.044200
     32 H112        5.1700   -0.4030    2.7930 hc        1 ESR      0.044200
     33 H12         3.6510   -2.3610    3.0040 hc        1 ESR      0.055700
     34 H13         1.6820   -0.2350    4.1170 hc        1 ESR      0.050700
     35 H16         3.5260   -0.6160    5.5430 hc        1 ESR      0.052700
     36 H191        1.1890   -3.2650    3.8510 hc        1 ESR      0.042700
     37 H192        0.1330   -2.0110    4.6100 hc        1 ESR      0.042700
     38 H241        5.9310   -2.2500    4.5360 hc        1 ESR      0.049700
     39 H242        5.8820   -0.5830    5.2310 hc        1 ESR      0.049700
     40 H251        5.7050   -1.3950    7.4470 hc        1 ESR      0.075200
     41 H252        6.2890   -2.9640    6.7610 hc        1 ESR      0.075200
     42 H271        4.7200   -4.1720    4.7510 hc        1 ESR      0.043700
     43 H272        3.3030   -4.9390    5.5920 hc        1 ESR      0.043700
     44 H273        3.0800   -4.1380    3.9830 hc        1 ESR      0.043700
     45 H181        1.3570   -3.4690    6.2690 hc        1 ESR      0.052200
     46 H182        1.6300   -1.6940    6.4810 hc        1 ESR      0.052200
@<TRIPOS>BOND
     1    1    2 1   
     2    1    6 1   
     3    1   18 2   
     4    2    3 1   
     5    2   21 1   
     6    2   22 1   
     7    3    4 1   
     8    3    7 1   
     9    3   23 1   
    10    4    5 1   
    11    4   10 1   
    12    4   24 1   
    13    5    6 1   
    14    5   25 1   
    15    5   26 1   
    16    6   27 1   
    17    6   28 1   
    18    7    8 1   
    19    7   29 1   
    20    7   30 1   
    21    8    9 1   
    22    8   31 1   
    23    8   32 1   
    24    9   10 1   
    25    9   11 1   
    26    9   33 1   
    27   10   13 1   
    28   10   34 1   
    29   11   12 1   
    30   11   14 1   
    31   11   35 1   
    32   12   16 1   
    33   12   17 1   
    34   12   19 1   
    35   13   19 1   
    36   13   36 1   
    37   13   37 1   
    38   14   15 1   
    39   14   38 1   
    40   14   39 1   
    41   15   16 1   
    42   15   40 1   
    43   15   41 1   
    44   16   20 2   
    45   17   42 1   
    46   17   43 1   
    47   17   44 1   
    48   19   45 1   
    49   19   46 1   
@<TRIPOS>SUBSTRUCTURE
     1 ESR         1 TEMP              0 ****  ****    0 ROOT
