@<TRIPOS>MOLECULE
EST
   44    47     1     0     0
SMALL
bcc


@<TRIPOS>ATOM
      1 C1          0.0850    0.0310    0.0300 ca        1 EST     -0.091000
      2 C2          1.4750    0.0890    0.0630 ca        1 EST     -0.215000
      3 C3          2.1240    0.1630    1.3020 ca        1 EST      0.122100
      4 O3          3.4940    0.2260    1.4250 oh        1 EST     -0.499100
      5 C4          1.3850    0.1750    2.4920 ca        1 EST     -0.162000
      6 C5         -0.0110    0.1130    2.4450 ca        1 EST     -0.037300
      7 C6         -0.7330    0.1010    3.7480 c3        1 EST     -0.037100
      8 C7         -2.2310    0.2740    3.6210 c3        1 EST     -0.073400
      9 C8         -2.7540   -0.5380    2.4510 c3        1 EST     -0.047700
     10 C9         -2.1720    0.0340    1.1460 c3        1 EST     -0.008400
     11 C10        -0.6750    0.0400    1.2050 ca        1 EST     -0.099300
     12 C11        -2.7220   -0.6860   -0.0820 c3        1 EST     -0.071400
     13 C12        -4.2390   -0.8010   -0.1040 c3        1 EST     -0.063400
     14 C13        -4.7620   -1.3890    1.1940 c3        1 EST     -0.044000
     15 C14        -4.2610   -0.4870    2.3480 c3        1 EST     -0.065700
     16 C15        -5.1180   -0.8900    3.5410 c3        1 EST     -0.068400
     17 C16        -6.4790   -1.2440    2.9370 c3        1 EST     -0.117400
     18 C17        -6.2940   -1.2910    1.4040 c3        1 EST      0.141100
     19 O17        -6.9350   -2.4080    0.8160 oh        1 EST     -0.591800
     20 C18        -4.3410   -2.8430    1.3250 c3        1 EST     -0.077100
     21 H1         -0.4110   -0.0220   -0.9510 ha        1 EST      0.134000
     22 H2          2.0550    0.0790   -0.8700 ha        1 EST      0.132000
     23 HO3         3.8720    0.2080    0.5330 ho        1 EST      0.418000
     24 H4          1.9120    0.2330    3.4550 ha        1 EST      0.148000
     25 H61        -0.3210    0.9120    4.4090 hc        1 EST      0.052700
     26 H62        -0.5150   -0.8790    4.2550 hc        1 EST      0.052700
     27 H71        -2.4830    1.3560    3.4750 hc        1 EST      0.044200
     28 H72        -2.7300   -0.0620    4.5670 hc        1 EST      0.044200
     29 H8         -2.4150   -1.6030    2.5750 hc        1 EST      0.063700
     30 H9         -2.4990    1.1150    1.0750 hc        1 EST      0.053700
     31 H111       -2.2650   -1.7080   -0.1460 hc        1 EST      0.043200
     32 H112       -2.4150   -0.1230   -1.0040 hc        1 EST      0.043200
     33 H121       -4.6890    0.2140   -0.2640 hc        1 EST      0.045200
     34 H122       -4.5480   -1.4490   -0.9640 hc        1 EST      0.045200
     35 H14        -4.5420    0.5780    2.0920 hc        1 EST      0.045700
     36 H151       -4.6760   -1.7700    4.0710 hc        1 EST      0.045200
     37 H152       -5.2040   -0.0550    4.2780 hc        1 EST      0.045200
     38 H161       -7.2470   -0.4810    3.2090 hc        1 EST      0.047200
     39 H162       -6.8290   -2.2390    3.3080 hc        1 EST      0.047200
     40 H17        -6.6870   -0.3490    0.9310 h1        1 EST      0.033700
     41 HO7        -7.8690   -2.3400    1.0500 ho        1 EST      0.398000
     42 H181       -3.2360   -2.9590    1.2380 hc        1 EST      0.041367
     43 H182       -4.6710   -3.2510    2.3110 hc        1 EST      0.041367
     44 H183       -4.8270   -3.4420    0.5160 hc        1 EST      0.041367
@<TRIPOS>BOND
     1    1    2 ar
     2    1   11 ar
     3    1   21 1
     4    2    3 ar
     5    2   22 1
     6    3    4 1
     7    3    5 ar
     8    4   23 1
     9    5    6 ar
    10    5   24 1
    11    6    7 1
    12    6   11 ar
    13    7    8 1
    14    7   25 1
    15    7   26 1
    16    8    9 1
    17    8   27 1
    18    8   28 1
    19    9   10 1
    20    9   15 1
    21    9   29 1
    22   10   11 1
    23   10   12 1
    24   10   30 1
    25   12   13 1
    26   12   31 1
    27   12   32 1
    28   13   14 1
    29   13   33 1
    30   13   34 1
    31   14   15 1
    32   14   18 1
    33   14   20 1
    34   15   16 1
    35   15   35 1
    36   16   17 1
    37   16   36 1
    38   16   37 1
    39   17   18 1
    40   17   38 1
    41   17   39 1
    42   18   19 1
    43   18   40 1
    44   19   41 1
    45   20   42 1
    46   20   43 1
    47   20   44 1
@<TRIPOS>SUBSTRUCTURE
     1 EST         1 TEMP              0 ****  ****    0 ROOT
