@<TRIPOS>MOLECULE
molecule
   67    71     1     0     0
SMALL
bcc


@<TRIPOS>ATOM
      1 C1           0.0000     0.0000     0.0000 c3         1 ESW      -0.100100
      2 C2           1.5300     0.0000     0.0000 c3         1 ESW       0.175700
      3 C3           2.0400     0.0000     1.4430 c3         1 ESW      -0.100100
      4 N4           2.0190    -1.1960    -0.6890 ns         1 ESW      -0.582900
      5 C5           1.7130    -2.4200    -0.2170 c          1 ESW       0.635100
      6 C7           2.2150    -3.6510    -0.9270 c3         1 ESW       0.063000
      7 C10          1.5970    -6.6980     1.2680 ca         1 ESW      -0.069300
      8 C11          1.7360    -7.6900     2.2140 ca         1 ESW      -0.127000
      9 C12          0.7570    -8.6550     2.3570 ca         1 ESW      -0.074000
     10 C13         -0.3750    -8.6270     1.5430 cp         1 ESW      -0.175500
     11 C14         -0.5220    -7.6280     0.5870 ca         1 ESW      -0.007000
     12 C15          0.4670    -6.6560     0.4460 ca         1 ESW      -0.167600
     13 C16          0.5980    -5.4980    -0.4610 c          1 ESW       0.728100
     14 O17         -0.2180    -5.1800    -1.3030 o          1 ESW      -0.623500
     15 C22         -6.0230   -10.9420     1.6040 c3         1 ESW       0.249500
     16 C23         -7.3460   -10.2540     1.9530 c3         1 ESW      -0.134400
     17 C24         -8.4560   -11.3060     2.0270 c3         1 ESW       0.140900
     18 C26         -7.3420   -12.7030     0.4250 c3         1 ESW       0.140900
     19 C27         -6.1880   -11.7080     0.2870 c3         1 ESW      -0.134400
     20 C35          2.9550     3.4880    -2.0130 ca         1 ESW      -0.128000
     21 C36          1.8010     3.5510    -1.2530 ca         1 ESW      -0.122500
     22 C37          1.3410     2.4220    -0.6020 ca         1 ESW      -0.126000
     23 O6           1.0320    -2.5320     0.7810 o          1 ESW      -0.595100
     24 N8           1.7490    -4.8470    -0.2200 n          1 ESW      -0.477800
     25 C9           2.4610    -5.5300     0.8650 c3         1 ESW       0.144300
     26 C18         -1.4240    -9.6640     1.6980 cp         1 ESW       0.579800
     27 N19         -2.7080    -9.3610     1.5170 nb         1 ESW      -0.784000
     28 C20         -3.6450   -10.2850     1.6530 ca         1 ESW       0.949900
     29 N21         -4.9710    -9.9350     1.4570 nu         1 ESW      -0.887900
     30 O25         -8.5370   -11.9990     0.7800 os         1 ESW      -0.422600
     31 N28         -3.3490   -11.5360     1.9730 nb         1 ESW      -0.797000
     32 C29         -2.0940   -11.9110     2.1690 ca         1 ESW       0.514200
     33 C30         -1.0800   -10.9790     2.0310 ca         1 ESW      -0.290200
     34 Cl1          0.5790   -11.4280     2.2720 cl         1 ESW      -0.093400
     35 C32          2.0330     1.2300    -0.7100 ca         1 ESW      -0.086300
     36 C33          3.1860     1.1680    -1.4700 ca         1 ESW      -0.126000
     37 C34          3.6470     2.2960    -2.1210 ca         1 ESW      -0.122500
     38 H39         -0.3610    -0.9110     0.4620 hc         1 ESW       0.050533
     39 H38         -0.3610     0.8550     0.5580 hc         1 ESW       0.050533
     40 H40         -0.3610     0.0560    -1.0200 hc         1 ESW       0.050533
     41 H41          2.1030     1.0200     1.8030 hc         1 ESW       0.050533
     42 H43          3.0220    -0.4570     1.4790 hc         1 ESW       0.050533
     43 H42          1.3560    -0.5620     2.0670 hc         1 ESW       0.050533
     44 H44          2.5550    -1.1050    -1.5300 hn         1 ESW       0.315500
     45 H45          1.8370    -3.6610    -1.9420 h1         1 ESW       0.075700
     46 H46          3.2980    -3.6400    -0.9450 h1         1 ESW       0.075700
     47 H49          2.6150    -7.7130     2.8470 ha         1 ESW       0.136000
     48 H50          0.8700    -9.4340     3.1010 ha         1 ESW       0.157000
     49 H51         -1.4010    -7.6050    -0.0460 ha         1 ESW       0.165000
     50 H53         -5.7590   -11.6360     2.3930 h1         1 ESW       0.078700
     51 H54         -7.2540    -9.7590     2.9120 hc         1 ESW       0.059450
     52 H55         -7.5880    -9.5270     1.1860 hc         1 ESW       0.059450
     53 H56         -9.4020   -10.8180     2.2290 h1         1 ESW       0.050200
     54 H57         -8.2320   -12.0110     2.8170 h1         1 ESW       0.050200
     55 H59         -7.1050   -13.4240     1.1980 h1         1 ESW       0.050200
     56 H58         -7.4920   -13.2130    -0.5190 h1         1 ESW       0.050200
     57 H60         -6.4080   -11.0090    -0.5110 hc         1 ESW       0.059450
     58 H61         -5.2740   -12.2440     0.0650 hc         1 ESW       0.059450
     59 H65          3.3160     4.3730    -2.5230 ha         1 ESW       0.131000
     60 H66          1.2590     4.4840    -1.1680 ha         1 ESW       0.131000
     61 H67          0.4370     2.4710    -0.0060 ha         1 ESW       0.131500
     62 H47          2.5910    -4.8580     1.7040 h1         1 ESW       0.064700
     63 H48          3.4220    -5.8850     0.5120 h1         1 ESW       0.064700
     64 H52         -5.2120    -8.9880     1.2400 hn         1 ESW       0.461800
     65 H62         -1.8640   -12.9370     2.4280 h4         1 ESW       0.039100
     66 H63          3.7290     0.2340    -1.5550 ha         1 ESW       0.131500
     67 H64          4.5510     2.2470    -2.7170 ha         1 ESW       0.131000
@<TRIPOS>BOND
     1    30    18 1
     2    30    17 1
     3    18    19 1
     4    19    15 1
     5    17    16 1
     6    16    15 1
     7    15    29 1
     8    29    28 1
     9    28    27 ar
    10    28    31 ar
    11    27    26 ar
    12    31    32 ar
    13    26    10 1
    14    26    33 ar
    15     9    10 ar
    16     9     8 ar
    17    10    11 ar
    18     8     7 ar
    19    11    12 ar
    20    32    33 ar
    21     7    12 ar
    22     7    25 1
    23    12    13 1
    24    33    34 1
    25    25    24 1
    26    13    14 2
    27    13    24 1
    28    24     6 1
    29     6     5 1
    30     5     4 1
    31     5    23 2
    32     4     2 1
    33    22    21 ar
    34    22    35 ar
    35    21    20 ar
    36     1     2 1
    37     2    35 1
    38     2     3 1
    39    35    36 ar
    40    20    37 ar
    41    36    37 ar
    42     1    38 1
    43     1    39 1
    44     1    40 1
    45     3    41 1
    46     3    42 1
    47     3    43 1
    48     4    44 1
    49     6    45 1
    50     6    46 1
    51     8    47 1
    52     9    48 1
    53    11    49 1
    54    15    50 1
    55    16    51 1
    56    16    52 1
    57    17    53 1
    58    17    54 1
    59    18    55 1
    60    18    56 1
    61    19    57 1
    62    19    58 1
    63    20    59 1
    64    21    60 1
    65    22    61 1
    66    25    62 1
    67    25    63 1
    68    29    64 1
    69    32    65 1
    70    36    66 1
    71    37    67 1
@<TRIPOS>SUBSTRUCTURE
     1 ESW         1 TEMP              0 ****  ****    0 ROOT
