@<TRIPOS>MOLECULE
molecule
   22    23     1     0     0
SMALL
bcc


@<TRIPOS>ATOM
      1 C0           0.0000     0.0000     0.0000 ce         1 ESX       0.498500
      2 C1           1.4710     0.0000     0.0000 cc         1 ESX      -0.287000
      3 N1          -0.6670     0.5770    -1.0020 nz         1 ESX      -0.773600
      4 N2          -0.6690    -0.5770     1.0000 nv         1 ESX      -0.377100
      5 S2           2.5820     0.0000     1.3970 ss         1 ESX       0.040500
      6 C3           4.1170     0.0000     0.5040 ca         1 ESX       0.093900
      7 C4           3.7090    -0.0010    -0.8510 ca         1 ESX      -0.149800
      8 C5           2.3190    -0.0060    -1.0620 cd         1 ESX       0.023800
      9 C6           5.4460     0.0000     0.8720 ca         1 ESX      -0.115000
     10 C7           6.4220    -0.0010    -0.1040 ca         1 ESX       0.051000
     11 C8           6.0490    -0.0020    -1.4430 ca         1 ESX      -0.130000
     12 C9           4.7440    -0.0010    -1.8200 ca         1 ESX      -0.010000
     13 HH11        -1.5690     0.8680    -0.6790 hn         1 ESX       0.504133
     14 HH12        -0.7770    -0.0780    -1.7510 hn         1 ESX       0.504133
     15 HH21        -1.6690    -0.5770     0.9990 hn         1 ESX       0.359700
     16 HH22        -0.1690    -1.0100     1.7520 hn         1 ESX       0.359700
     17 H5           2.0530    -0.1200    -2.1060 ha         1 ESX       0.164000
     18 H6           5.7220     0.0010     1.9190 ha         1 ESX       0.188000
     19 H7           7.4690    -0.0020     0.1710 ha         1 ESX       0.194000
     20 H8           6.8190    -0.0030    -2.2060 ha         1 ESX       0.190000
     21 H9           4.4920    -0.0010    -2.8740 ha         1 ESX       0.168000
     22 H13         -0.1520     1.3670    -1.3350 hn         1 ESX       0.504133
@<TRIPOS>BOND
     1     1     2 1
     2     1     3 1
     3     1     4 2
     4     2     5 1
     5     2     8 2
     6     3    13 1
     7     3    14 1
     8     4    15 1
     9     4    16 1
    10     5     6 1
    11     6     7 ar
    12     6     9 ar
    13     7     8 1
    14     7    12 ar
    15     8    17 1
    16     9    10 ar
    17     9    18 1
    18    10    11 ar
    19    10    19 1
    20    11    12 ar
    21    11    20 1
    22    12    21 1
    23    22     3 1
@<TRIPOS>SUBSTRUCTURE
     1 ESX         1 TEMP              0 ****  ****    0 ROOT
