@<TRIPOS>MOLECULE
ESX
   22    23     1     0     0
SMALL
bcc


@<TRIPOS>ATOM
      1 C0           0.0000     0.0000     0.0000 ce         1 ESX       0.045500
      2 C1           1.4710     0.0000     0.0000 cc         1 ESX      -0.249000
      3 N1          -0.6670     0.5770    -1.0020 nz         1 ESX       0.174400
      4 N2          -0.6690    -0.5770     1.0000 nv         1 ESX       0.312900
      5 S2           2.5820     0.0000     1.3970 ss         1 ESX      -0.108500
      6 C3           4.1170     0.0000     0.5040 ca         1 ESX       0.163900
      7 C4           3.7090    -0.0010    -0.8510 ca         1 ESX      -0.182800
      8 C5           2.3190    -0.0060    -1.0620 cd         1 ESX       0.105800
      9 C6           5.4460     0.0000     0.8720 ca         1 ESX      -0.075000
     10 C7           6.4220    -0.0010    -0.1040 ca         1 ESX       0.111000
     11 C8           6.0490    -0.0020    -1.4430 ca         1 ESX      -0.110000
     12 C9           4.7440    -0.0010    -1.8200 ca         1 ESX       0.052000
     13 HH11        -0.7770    -0.0780    -1.7510 hn         1 ESX       0.248133
     14 HH12        -1.5690     0.8680    -0.6790 hn         1 ESX       0.248133
     15 HH21        -0.1690    -1.0100     1.7520 hn         1 ESX       0.161200
     16 HH22        -1.6690    -0.5760     1.0000 hn         1 ESX       0.161200
     17 H5           2.0530    -0.1200    -2.1060 ha         1 ESX       0.120000
     18 H6           5.7220     0.0010     1.9190 ha         1 ESX       0.154000
     19 H7           7.4690    -0.0020     0.1710 ha         1 ESX       0.144000
     20 H8           6.8190    -0.0030    -2.2060 ha         1 ESX       0.151000
     21 H9           4.4920    -0.0010    -2.8740 ha         1 ESX       0.126000
     22 H13         -0.1520     1.3670    -1.3350 hn         1 ESX       0.248133
@<TRIPOS>BOND
     1     1     2 1   
     2     1     3 1   
     3     1     4 2   
     4     2     5 1   
     5     2     8 2   
     6     3    13 1   
     7     3    14 1   
     8     3    22 1   
     9     4    15 1   
    10     4    16 1   
    11     5     6 1   
    12     6     7 ar  
    13     6     9 ar  
    14     7     8 1   
    15     7    12 ar  
    16     8    17 1   
    17     9    10 ar  
    18     9    18 1   
    19    10    11 ar  
    20    10    19 1   
    21    11    12 ar  
    22    11    20 1   
    23    12    21 1   
@<TRIPOS>SUBSTRUCTURE
     1 ESX         1 TEMP              0 ****  ****    0 ROOT
