@<TRIPOS>MOLECULE
ESY
   86    87     1     0     0
SMALL
bcc


@<TRIPOS>ATOM
      1 C1           0.0000     0.0000     0.0000 ca         1 ESY      -0.091000
      2 C2           1.3830     0.0000     0.0000 ca         1 ESY      -0.107000
      3 C3           2.0740     0.0000     1.1970 ca         1 ESY      -0.074000
      4 C4           1.3840     0.0010     2.3940 ca         1 ESY      -0.119300
      5 C5           2.1380    -0.0000     3.6990 c3         1 ESY       0.302700
      6 O6           2.3810     1.3680     4.1190 os         1 ESY      -0.416900
      7 C7           3.0480     1.5440     5.2740 c          1 ESY       0.680100
      8 N8           3.3070     2.7890     5.7200 ns         1 ESY      -0.151900
      9 C9           4.0330     2.9810     6.9780 c3         1 ESY      -0.039300
     10 C10          3.6790     4.3230     7.5630 c          1 ESY       0.577100
     11 N11          4.2310     4.7170     8.7280 ns         1 ESY      -0.164900
     12 C12          3.8870     6.0230     9.2970 c3         1 ESY      -0.026300
     13 C13          4.1020     5.9910    10.8110 c3         1 ESY      -0.037400
     14 C14          3.1220     5.0010    11.4450 c3         1 ESY      -0.025400
     15 C15          3.3380     4.9700    12.9600 c3         1 ESY      -0.041400
     16 C16          2.3580     3.9800    13.5940 c3         1 ESY       0.050000
     17 N17          2.5640     3.9500    15.0430 ns         1 ESY      -0.196900
     18 C18          1.8080     3.1430    15.8160 c          1 ESY       0.529100
     19 C19          2.0200     3.1120    17.3070 c3         1 ESY       0.129100
     20 C20          1.6600     4.4760    17.9010 c3         1 ESY      -0.182700
     21 C21          0.1870     4.7320    17.7140 c          1 ESY       0.673900
     22 O22         -0.1820     5.6910    17.0790 o          1 ESY      -0.559100
     23 C23          1.9930     4.4840    19.3960 c3         1 ESY      -0.041700
     24 C24          1.6330     5.8470    19.9900 c3         1 ESY      -0.033400
     25 C25          1.8470     5.8150    21.5040 c3         1 ESY       0.002900
     26 C26          3.4870     4.2220    19.5860 c3         1 ESY      -0.007100
     27 O27          1.1880     2.1050    17.8850 oh         1 ESY      -0.560800
     28 C29          4.7650     7.0850     8.6880 c          1 ESY       0.683100
     29 O30          4.6260     8.3660     9.0610 os         1 ESY      -0.404900
     30 C31          5.5060     9.3350     8.4320 c3         1 ESY       0.287700
     31 C32          5.2080    10.7100     8.9730 ca         1 ESY      -0.122300
     32 C33          5.8760    11.1740    10.0900 ca         1 ESY      -0.074500
     33 C34          5.6020    12.4350    10.5860 ca         1 ESY      -0.105000
     34 C35          4.6600    13.2310     9.9630 ca         1 ESY      -0.088000
     35 C36          3.9920    12.7680     8.8450 ca         1 ESY      -0.105000
     36 C37          4.2690    11.5090     8.3480 ca         1 ESY      -0.074500
     37 O28          0.9570     2.4430    15.3090 o          1 ESY      -0.619100
     38 O38          5.5940     6.7830     7.8610 o          1 ESY      -0.583000
     39 O39          2.8970     5.0490     6.9870 o          1 ESY      -0.646100
     40 C40          5.5400     2.9220     6.7110 c3         1 ESY      -0.018100
     41 O41          3.4180     0.5800     5.9140 o          1 ESY      -0.674000
     42 C42          0.0020     0.0020     2.3950 ca         1 ESY      -0.074000
     43 C43         -0.6900    -0.0000     1.1970 ca         1 ESY      -0.107000
     44 H1          -0.5420    -0.0010    -0.9380 ha         1 ESY       0.101000
     45 H2           1.9240    -0.0000    -0.9380 ha         1 ESY       0.103000
     46 H3           3.1570    -0.0000     1.1970 ha         1 ESY       0.106500
     47 H5           3.0840    -0.5110     3.5690 h1         1 ESY       0.014200
     48 H5A          1.5530    -0.5110     4.4540 h1         1 ESY       0.014200
     49 HN8          3.0120     3.5830     5.1870 hn         1 ESY       0.200500
     50 H9           3.7600     2.1990     7.6760 h1         1 ESY       0.065700
     51 HN11         4.8880     4.1250     9.1960 hn         1 ESY       0.184500
     52 H12          2.8490     6.2470     9.0840 h1         1 ESY       0.080700
     53 H13          3.9320     6.9800    11.2210 hc         1 ESY       0.032200
     54 H13A         5.1180     5.6810    11.0260 hc         1 ESY       0.032200
     55 H14          3.2920     4.0120    11.0360 hc         1 ESY       0.024200
     56 H14A         2.1060     5.3110    11.2320 hc         1 ESY       0.024200
     57 H15          3.1680     5.9580    13.3690 hc         1 ESY       0.018700
     58 H15A         4.3540     4.6600    13.1730 hc         1 ESY       0.018700
     59 H16          2.5280     2.9910    13.1840 h1         1 ESY       0.030200
     60 H16A         1.3430     4.2890    13.3790 h1         1 ESY       0.030200
     61 HN17         3.3010     4.4880    15.4550 hn         1 ESY       0.173500
     62 H19          3.0580     2.8880    17.5190 h1         1 ESY       0.018700
     63 H20          2.2280     5.2500    17.4000 hc         1 ESY       0.051700
     64 H21         -0.5410     4.0820    18.1840 h4         1 ESY      -0.014800
     65 H23          1.4240     3.7100    19.8960 hc         1 ESY       0.047700
     66 H24          0.5940     6.0710    19.7770 hc         1 ESY       0.019700
     67 H24A         2.2640     6.6100    19.5520 hc         1 ESY       0.019700
     68 H25          1.1690     6.5130    21.9800 hc         1 ESY       0.004367
     69 H25A         1.6560     4.8150    21.8760 hc         1 ESY       0.004367
     70 H25B         2.8690     6.0940    21.7300 hc         1 ESY       0.004367
     71 H26          3.6840     3.1620    19.4860 hc         1 ESY       0.007700
     72 H26A         4.0480     4.7660    18.8360 hc         1 ESY       0.007700
     73 H26B         3.7890     4.5540    20.5730 hc         1 ESY       0.007700
     74 HO27         1.6100     1.2660    17.8080 ho         1 ESY       0.400000
     75 H31          5.3450     9.3260     7.3610 h1         1 ESY       0.015700
     76 H31A         6.5360     9.0790     8.6450 h1         1 ESY       0.015700
     77 H33          6.6150    10.5490    10.5780 ha         1 ESY       0.106500
     78 H34          6.1260    12.7980    11.4620 ha         1 ESY       0.104500
     79 H35          4.4440    14.2190    10.3530 ha         1 ESY       0.103000
     80 H36          3.2550    13.3940     8.3570 ha         1 ESY       0.104500
     81 H37          3.7450    11.1460     7.4720 ha         1 ESY       0.106500
     82 H40          5.9170     3.9250     6.5480 hc         1 ESY       0.019700
     83 H40A         5.7270     2.3190     5.8310 hc         1 ESY       0.019700
     84 H40B         6.0410     2.4820     7.5640 hc         1 ESY       0.019700
     85 H42         -0.5400     0.0020     3.3330 ha         1 ESY       0.106500
     86 H43         -1.7740     0.0000     1.1980 ha         1 ESY       0.103000
@<TRIPOS>BOND
     1     1     2 ar  
     2     1    43 ar  
     3     1    44 1   
     4     2     3 ar  
     5     2    45 1   
     6     3     4 ar  
     7     3    46 1   
     8     4     5 1   
     9     4    42 ar  
    10     5     6 1   
    11     5    47 1   
    12     5    48 1   
    13     6     7 1   
    14     7     8 1   
    15     7    41 2   
    16     8     9 1   
    17     8    49 1   
    18     9    10 1   
    19     9    40 1   
    20     9    50 1   
    21    10    11 1   
    22    10    39 2   
    23    11    12 1   
    24    11    51 1   
    25    12    13 1   
    26    12    28 1   
    27    12    52 1   
    28    13    14 1   
    29    13    53 1   
    30    13    54 1   
    31    14    15 1   
    32    14    55 1   
    33    14    56 1   
    34    15    16 1   
    35    15    57 1   
    36    15    58 1   
    37    16    17 1   
    38    16    59 1   
    39    16    60 1   
    40    17    18 1   
    41    17    61 1   
    42    18    19 1   
    43    18    37 2   
    44    19    20 1   
    45    19    27 1   
    46    19    62 1   
    47    20    21 1   
    48    20    23 1   
    49    20    63 1   
    50    21    22 2   
    51    21    64 1   
    52    23    24 1   
    53    23    26 1   
    54    23    65 1   
    55    24    25 1   
    56    24    66 1   
    57    24    67 1   
    58    25    68 1   
    59    25    69 1   
    60    25    70 1   
    61    26    71 1   
    62    26    72 1   
    63    26    73 1   
    64    27    74 1   
    65    28    29 1   
    66    28    38 2   
    67    29    30 1   
    68    30    31 1   
    69    30    75 1   
    70    30    76 1   
    71    31    32 ar  
    72    31    36 ar  
    73    32    33 ar  
    74    32    77 1   
    75    33    34 ar  
    76    33    78 1   
    77    34    35 ar  
    78    34    79 1   
    79    35    36 ar  
    80    35    80 1   
    81    36    81 1   
    82    40    82 1   
    83    40    83 1   
    84    40    84 1   
    85    42    43 ar  
    86    42    85 1   
    87    43    86 1   
@<TRIPOS>SUBSTRUCTURE
     1 ESY         1 TEMP              0 ****  ****    0 ROOT
