@<TRIPOS>MOLECULE
ESZ
   44    47     1     0     0
SMALL
bcc


@<TRIPOS>ATOM
      1 BR2         0.1530    0.3700   -0.4070 br        1 ESZ     -0.180400
      2 C8          2.0230   -0.0130   -0.0710 c3        1 ESZ     -0.030300
      3 C7          2.3510   -0.0670    1.4440 c3        1 ESZ      0.148100
      4 O1          2.8830    1.1600    1.9010 oh        1 ESZ     -0.585800
      5 C5          3.4190   -1.1840    1.5600 c3        1 ESZ     -0.044000
      6 C6          4.7790   -0.6060    1.2070 c3        1 ESZ     -0.080100
      7 C4          3.4750   -1.8920    2.9020 c3        1 ESZ     -0.063400
      8 C3          4.3340   -3.1450    2.8240 c3        1 ESZ     -0.072400
      9 C2          3.9550   -4.0870    1.6840 c3        1 ESZ     -0.008400
     10 C12         3.8480   -3.3420    0.3410 c3        1 ESZ     -0.047700
     11 C10         2.8790   -2.1970    0.5230 c3        1 ESZ     -0.068700
     12 C9          2.4900   -1.3420   -0.6760 c3        1 ESZ     -0.065400
     13 C21         4.8800   -5.2570    1.5540 ca        1 ESZ     -0.100300
     14 C20         5.5270   -5.7850    2.6810 ca        1 ESZ     -0.096000
     15 C19         6.3490   -6.9010    2.5950 ca        1 ESZ     -0.158000
     16 C18         6.5280   -7.5150    1.3450 ca        1 ESZ      0.124100
     17 O3          7.3500   -8.6200    1.3120 oh        1 ESZ     -0.498100
     18 C17         5.8920   -7.0100    0.2080 ca        1 ESZ     -0.217000
     19 C16         5.0680   -5.8820    0.3090 ca        1 ESZ     -0.033300
     20 C15         4.4440   -5.3820   -0.9490 c3        1 ESZ     -0.037100
     21 C14         3.3920   -4.3170   -0.7290 c3        1 ESZ     -0.074400
     22 H1          2.5720    0.8420   -0.5370 h1        1 ESZ      0.090700
     23 H2          1.4430   -0.3410    2.0470 h1        1 ESZ      0.054700
     24 H3          2.1600    1.8000    1.8740 ho        1 ESZ      0.406000
     25 H4          4.7540   -0.1520    0.1870 hc        1 ESZ      0.043033
     26 H5          5.5750   -1.3860    1.2340 hc        1 ESZ      0.043033
     27 H6          5.0410    0.1950    1.9420 hc        1 ESZ      0.043033
     28 H7          2.4370   -2.1680    3.2240 hc        1 ESZ      0.046700
     29 H8          3.8990   -1.2010    3.6760 hc        1 ESZ      0.046700
     30 H9          5.4130   -2.8590    2.7230 hc        1 ESZ      0.045700
     31 H10         4.2210   -3.6890    3.8000 hc        1 ESZ      0.045700
     32 H11         2.9310   -4.5060    1.9210 hc        1 ESZ      0.055700
     33 H12         4.8610   -2.9450    0.0540 hc        1 ESZ      0.063700
     34 H13         1.9210   -2.6330    0.9370 hc        1 ESZ      0.053700
     35 H14         3.3700   -1.1660   -1.3440 hc        1 ESZ      0.060700
     36 H15         1.6960   -1.8400   -1.2850 hc        1 ESZ      0.060700
     37 H16         5.3900   -5.3150    3.6670 ha        1 ESZ      0.135000
     38 H17         6.8550   -7.3090    3.4810 ha        1 ESZ      0.150000
     39 H18         7.3820   -8.9380    0.3980 ho        1 ESZ      0.418000
     40 H19         6.0370   -7.4950   -0.7680 ha        1 ESZ      0.132000
     41 H20         3.9870   -6.2440   -1.5060 hc        1 ESZ      0.051700
     42 H21         5.2620   -4.9650   -1.6000 hc        1 ESZ      0.051700
     43 H22         3.2070   -3.7670   -1.6880 hc        1 ESZ      0.045700
     44 H23         2.4230   -4.7910   -0.4210 hc        1 ESZ      0.045700
@<TRIPOS>BOND
     1    1    2 1   
     2    2    3 1   
     3    2   12 1   
     4    2   22 1   
     5    3    4 1   
     6    3    5 1   
     7    3   23 1   
     8    4   24 1   
     9    5    6 1   
    10    5    7 1   
    11    5   11 1   
    12    6   25 1   
    13    6   26 1   
    14    6   27 1   
    15    7    8 1   
    16    7   28 1   
    17    7   29 1   
    18    8    9 1   
    19    8   30 1   
    20    8   31 1   
    21    9   10 1   
    22    9   13 1   
    23    9   32 1   
    24   10   11 1   
    25   10   21 1   
    26   10   33 1   
    27   11   12 1   
    28   11   34 1   
    29   12   35 1   
    30   12   36 1   
    31   13   14 ar  
    32   13   19 ar  
    33   14   15 ar  
    34   14   37 1   
    35   15   16 ar  
    36   15   38 1   
    37   16   17 1   
    38   16   18 ar  
    39   17   39 1   
    40   18   19 ar  
    41   18   40 1   
    42   19   20 1   
    43   20   21 1   
    44   20   41 1   
    45   20   42 1   
    46   21   43 1   
    47   21   44 1   
@<TRIPOS>SUBSTRUCTURE
     1 ESZ         1 TEMP              0 ****  ****    0 ROOT
