@<TRIPOS>MOLECULE
molecule
   44    47     1     0     0
SMALL
bcc


@<TRIPOS>ATOM
      1 Br2          0.0000     0.0000     0.0000 br         1 ESZ      -0.187400
      2 C8           1.9650     0.0000     0.0000 c3         1 ESZ      -0.015300
      3 C7           2.4980     0.0000     1.4550 c3         1 ESZ       0.158100
      4 O1           3.2660     1.1790     1.7010 oh         1 ESZ      -0.595800
      5 C5           3.3810    -1.2370     1.5590 c3         1 ESZ      -0.068000
      6 C6           4.8050    -0.8920     1.1170 c3         1 ESZ      -0.086100
      7 C4           3.4220    -1.9370     2.9020 c3         1 ESZ      -0.064400
      8 C3           4.3600    -3.1530     2.7670 c3         1 ESZ      -0.076400
      9 C2           3.8870    -4.0740     1.6510 c3         1 ESZ      -0.020400
     10 C12          3.7630    -3.3250     0.3180 c3         1 ESZ      -0.057700
     11 C10          2.7430    -2.2210     0.5370 c3         1 ESZ      -0.072700
     12 C9           2.4990    -1.3000    -0.6620 c3         1 ESZ      -0.069400
     13 C21          4.7920    -5.2610     1.4940 ca         1 ESZ      -0.078300
     14 C20          5.3800    -5.7950     2.6320 ca         1 ESZ      -0.115000
     15 C19          6.2110    -6.8930     2.5450 ca         1 ESZ      -0.163000
     16 C18          6.4600    -7.4690     1.3070 ca         1 ESZ       0.105100
     17 O3           7.2720    -8.5530     1.2110 oh         1 ESZ      -0.522100
     18 C17          5.8760    -6.9330     0.1720 ca         1 ESZ      -0.151000
     19 C16          5.0420    -5.8270     0.2600 ca         1 ESZ      -0.058300
     20 C15          4.4550    -5.2910    -1.0190 c3         1 ESZ      -0.034100
     21 C14          3.2950    -4.3260    -0.7390 c3         1 ESZ      -0.075400
     22 H1           2.3420     0.8660    -0.5310 h1         1 ESZ       0.094700
     23 H2           1.6730    -0.0700     2.1540 h1         1 ESZ       0.054700
     24 H3           2.7100     1.8450     2.0690 ho         1 ESZ       0.404000
     25 H4           4.8070    -0.6550     0.0600 hc         1 ESZ       0.045700
     26 H5           5.1600    -0.0360     1.6790 hc         1 ESZ       0.045700
     27 H6           5.4550    -1.7380     1.2980 hc         1 ESZ       0.045700
     28 H7           3.8070    -1.2600     3.6550 hc         1 ESZ       0.047200
     29 H8           2.4270    -2.2700     3.1720 hc         1 ESZ       0.047200
     30 H9           5.3530    -2.7970     2.5220 hc         1 ESZ       0.052200
     31 H10          4.3460    -3.7040     3.6990 hc         1 ESZ       0.052200
     32 H11          2.9030    -4.4410     1.9190 hc         1 ESZ       0.057700
     33 H12          4.7190    -2.9020     0.0360 hc         1 ESZ       0.070700
     34 H13          1.8110    -2.6200     0.9180 hc         1 ESZ       0.067700
     35 H14          3.4330    -1.1000    -1.1720 hc         1 ESZ       0.064700
     36 H15          1.7390    -1.7260    -1.3060 hc         1 ESZ       0.064700
     37 H16          5.1860    -5.3450     3.5980 ha         1 ESZ       0.135000
     38 H17          6.7550    -7.2300     3.4190 ha         1 ESZ       0.140000
     39 H18          6.7900    -9.3290     1.4470 ho         1 ESZ       0.419000
     40 H19          6.0700    -7.3830    -0.7940 ha         1 ESZ       0.140000
     41 H20          5.2270    -4.7660    -1.5690 hc         1 ESZ       0.052700
     42 H21          4.0900    -6.1200    -1.6140 hc         1 ESZ       0.052700
     43 H22          2.4410    -4.8790    -0.3670 hc         1 ESZ       0.047700
     44 H23          3.0300    -3.8000    -1.6490 hc         1 ESZ       0.047700
@<TRIPOS>BOND
     1    17    16 1
     2    16    18 ar
     3    16    15 ar
     4    18    19 ar
     5    15    14 ar
     6    19    20 1
     7    19    13 ar
     8    14    13 ar
     9    20    21 1
    10    13     9 1
    11    21    10 1
    12     9    10 1
    13     9     8 1
    14    10    11 1
    15     8     7 1
    16    11    12 1
    17    11     5 1
    18     7     5 1
    19    12     2 1
    20     6     5 1
    21     5     3 1
    22     2     3 1
    23     2     1 1
    24     3     4 1
    25     2    22 1
    26     3    23 1
    27     4    24 1
    28     6    25 1
    29     6    26 1
    30     6    27 1
    31     7    28 1
    32     7    29 1
    33     8    30 1
    34     8    31 1
    35     9    32 1
    36    10    33 1
    37    11    34 1
    38    12    35 1
    39    12    36 1
    40    14    37 1
    41    15    38 1
    42    17    39 1
    43    18    40 1
    44    20    41 1
    45    20    42 1
    46    21    43 1
    47    21    44 1
@<TRIPOS>SUBSTRUCTURE
     1 ESZ         1 TEMP              0 ****  ****    0 ROOT
