@<TRIPOS>MOLECULE
ET
   44    47     1     0     0
SMALL
bcc


@<TRIPOS>ATOM
      1 C1           0.0000     0.0000     0.0000 ca         1 ET       -0.085000
      2 C2           1.3640     0.0000     0.0000 ca         1 ET       -0.048000
      3 C3           2.0730     0.0000     1.2030 ca         1 ET        0.075600
      4 C4           1.4080    -0.0000     2.4130 ca         1 ET       -0.114000
      5 N5          -0.6490     0.0010     3.6080 na         1 ET        0.680900
      6 C6          -1.9590    -0.0050     3.7030 cp         1 ET       -0.074300
      7 C7          -4.1910     0.0010     2.5740 ca         1 ET       -0.177000
      8 C8          -4.9310     0.0010     1.4060 ca         1 ET        0.073600
      9 C9          -4.2960     0.0010     0.1630 ca         1 ET       -0.114000
     10 C10         -2.9340     0.0010     0.0740 ca         1 ET       -0.035000
     11 C11         -2.7970     0.0000     2.5020 ca         1 ET       -0.017000
     12 C12         -2.1650    -0.0000     1.2370 ca         1 ET       -0.066000
     13 C13         -0.6980    -0.0010     1.2080 ca         1 ET        0.036000
     14 C14          0.0050    -0.0000     2.4360 ca         1 ET       -0.273300
     15 C15         -2.5950    -0.0120     5.0400 cp         1 ET       -0.125000
     16 C16         -3.4450    -1.0550     5.4070 ca         1 ET       -0.076500
     17 C17         -4.0330    -1.0550     6.6540 ca         1 ET       -0.084000
     18 C18         -3.7840    -0.0230     7.5400 ca         1 ET       -0.052000
     19 C19         -2.9430     1.0150     7.1830 ca         1 ET       -0.084000
     20 C20         -2.3420     1.0240     5.9410 ca         1 ET       -0.076500
     21 C21          0.1380    -0.0000     4.8430 c3         1 ET       -0.187700
     22 C22          0.5090    -1.4380     5.2110 c3         1 ET        0.002900
     23 N23          3.4700     0.0000     1.1830 nv         1 ET       -0.560200
     24 N24         -6.3260     0.0020     1.4700 nv         1 ET       -0.392200
     25 H1          -0.5410     0.0000    -0.9380 ha         1 ET        0.130000
     26 H2           1.9010     0.0000    -0.9410 ha         1 ET        0.128000
     27 H4           1.9670    -0.0000     3.3400 ha         1 ET        0.136000
     28 H7          -4.6890     0.0010     3.5360 ha         1 ET        0.138000
     29 H9          -4.8910     0.0020    -0.7420 ha         1 ET        0.126000
     30 H10         -2.4530     0.0010    -0.8960 ha         1 ET        0.124000
     31 H16         -3.6410    -1.8640     4.7140 ha         1 ET        0.116500
     32 H17         -4.6930    -1.8650     6.9400 ha         1 ET        0.123000
     33 H18         -4.2510    -0.0270     8.5180 ha         1 ET        0.121000
     34 H19         -2.7500     1.8200     7.8830 ha         1 ET        0.123000
     35 H20         -1.6830     1.8380     5.6620 ha         1 ET        0.116500
     36 H211         1.0410     0.5790     4.6950 h1         1 ET        0.084700
     37 H212        -0.4450     0.4390     5.6430 h1         1 ET        0.084700
     38 H221         0.2070    -1.6390     6.2320 hc         1 ET        0.026367
     39 H222         0.0020    -2.1240     4.5430 hc         1 ET        0.026367
     40 H223         1.5800    -1.5700     5.1180 hc         1 ET        0.026367
     41 H231         3.9710     0.8650     1.2300 hn         1 ET        0.292300
     42 H232         3.9690    -0.8640     1.1060 hn         1 ET        0.292300
     43 H241        -6.7860     0.0080     2.3590 hn         1 ET        0.278800
     44 H242        -6.8660     0.0060     0.6270 hn         1 ET        0.278800
@<TRIPOS>BOND
     1     1     2 ar  
     2     1    13 ar  
     3     1    25 1   
     4     2     3 ar  
     5     2    26 1   
     6     3     4 ar  
     7     3    23 1   
     8     4    14 ar  
     9     4    27 1   
    10     5     6 2   
    11     5    14 1   
    12     5    21 1   
    13     6    11 ar  
    14     6    15 1   
    15     7     8 ar  
    16     7    11 ar  
    17     7    28 1   
    18     8     9 ar  
    19     8    24 1   
    20     9    10 ar  
    21     9    29 1   
    22    10    12 ar  
    23    10    30 1   
    24    11    12 ar  
    25    12    13 ar  
    26    13    14 ar  
    27    15    16 ar  
    28    15    20 ar  
    29    16    17 ar  
    30    16    31 1   
    31    17    18 ar  
    32    17    32 1   
    33    18    19 ar  
    34    18    33 1   
    35    19    20 ar  
    36    19    34 1   
    37    20    35 1   
    38    21    22 1   
    39    21    36 1   
    40    21    37 1   
    41    22    38 1   
    42    22    39 1   
    43    22    40 1   
    44    23    41 1   
    45    23    42 1   
    46    24    43 1   
    47    24    44 1   
@<TRIPOS>SUBSTRUCTURE
     1 ET          1 TEMP              0 ****  ****    0 ROOT
