@<TRIPOS>MOLECULE
ET0
   28    28     1     0     0
SMALL
bcc


@<TRIPOS>ATOM
      1 N1         -1.1750    0.7030   -0.7220 n1        1 ET0     -0.207000
      2 C4          1.3460   -0.5830    0.1530 c3        1 ET0     -0.189000
      3 C5          0.4390   -1.6340   -5.5740 c2        1 ET0      0.332000
      4 C6          3.0150    0.3400   -1.4190 c2        1 ET0     -0.196000
      5 C8          2.3960   -0.7490    1.1440 c1        1 ET0     -0.144000
      6 C10         4.0090    0.1960   -0.3880 c2        1 ET0      0.183000
      7 O2          0.2980   -0.5690   -6.2400 o         1 ET0     -0.568000
      8 O1          0.5470   -2.7870   -6.0710 o         1 ET0     -0.568000
      9 C9          0.4590   -1.5310   -4.0320 c3        1 ET0     -0.226000
     10 C2          0.7040    0.1440   -2.1920 c2        1 ET0      0.071000
     11 C3         -0.6650    0.3910   -1.8360 c2        1 ET0     -0.176000
     12 C1          1.7210   -0.0390   -1.1830 c2        1 ET0     -0.017000
     13 C11         3.6960   -0.3290    0.8550 c2        1 ET0     -0.317000
     14 O3          5.2500    0.6220   -0.7830 os        1 ET0     -0.205000
     15 C12         6.2990    0.4870    0.1730 c3        1 ET0     -0.077000
     16 H6          3.3370    0.7700   -2.3800 ha        1 ET0      0.160000
     17 H7          2.1050   -0.1650   -3.7940 hc        1 ET0      0.126500
     18 H7A         0.5210    0.5960   -4.2750 hc        1 ET0      0.126500
     19 H8          0.8120   -1.5690    0.0290 hc        1 ET0      0.175000
     20 H9         -0.5920   -1.6650   -3.6700 hc        1 ET0      0.073000
     21 H9A         1.0830   -2.3570   -3.6140 hc        1 ET0      0.073000
     22 H3         -1.3190    0.2850   -2.7530 h4        1 ET0      0.166000
     23 H11         4.4650   -0.4410    1.6320 ha        1 ET0      0.134000
     24 H12         6.0810    1.1020    1.0800 h1        1 ET0      0.087000
     25 H12A        7.1970    0.8800   -0.3690 h1        1 ET0      0.087000
     26 H12B        6.4390   -0.5850    0.4510 h1        1 ET0      0.087000
     27 HN1         0.5830    0.1200    0.6300 hc        1 ET0      0.175000
     28 C7          0.9990   -0.1780   -3.6010 c3        1 ET0     -0.169000
@<TRIPOS>BOND
     1    1   11 1   
     2    2    5 1   
     3    2   12 1   
     4    2   19 1   
     5    2   27 1   
     6    3    7 1   
     7    3    8 1   
     8    3    9 1   
     9    4    6 1   
    10    4   12 1   
    11    4   16 1   
    12    5   13 1   
    13    6   13 1   
    14    6   14 1   
    15    9   20 1   
    16    9   21 1   
    17    9   28 1   
    18   10   11 1   
    19   10   12 1   
    20   10   28 1   
    21   11   22 1   
    22   13   23 1   
    23   14   15 1   
    24   15   24 1   
    25   15   25 1   
    26   15   26 1   
    27   17   28 1   
    28   18   28 1   
@<TRIPOS>SUBSTRUCTURE
     1 ET0         1 TEMP              0 ****  ****    0 ROOT
