@<TRIPOS>MOLECULE
molecule
   28    29     1     0     0
SMALL
bcc


@<TRIPOS>ATOM
      1 N1           0.0000     0.0000     0.0000 na         1 ET0      -0.198400
      2 C4           1.3790     0.0000     0.0000 ca         1 ET0      -0.070200
      3 C5           0.4980    -1.4230    -5.6740 c          1 ET0       0.889600
      4 C6           3.1550     0.0010    -1.6540 ca         1 ET0      -0.093000
      5 C8           2.3330     0.0000     1.0120 ca         1 ET0      -0.127000
      6 C10          4.0870     0.0010    -0.6350 ca         1 ET0       0.086100
      7 O2           0.3670    -0.3810    -6.2700 o          1 ET0      -0.856800
      8 O1           0.5650    -2.5800    -6.3520 o          1 ET0      -0.856800
      9 C9           0.5840    -1.4260    -4.1690 c3         1 ET0      -0.179400
     10 C2           0.5680     0.0070    -2.1460 cc         1 ET0      -0.113400
     11 C3          -0.4640     0.0010    -1.2870 cd         1 ET0      -0.126100
     12 C1           1.7930     0.0010    -1.3440 ca         1 ET0      -0.062800
     13 C11          3.6730     0.0010     0.6940 ca         1 ET0      -0.199000
     14 O3           5.4140     0.0010    -0.9320 os         1 ET0      -0.330900
     15 C12          6.3250     0.0010     0.1700 c3         1 ET0       0.133700
     16 H6           3.4780     0.0010    -2.6880 ha         1 ET0       0.159000
     17 H7           1.2940     0.6000    -4.0580 hc         1 ET0       0.053700
     18 H7A         -0.4650     0.4380    -3.9570 hc         1 ET0       0.053700
     19 H8           2.0220    -0.0000     2.0500 ha         1 ET0       0.112000
     20 H9          -0.2280    -2.0170    -3.7620 hc         1 ET0       0.032200
     21 H9A          1.5310    -1.8550    -3.8630 hc         1 ET0       0.032200
     22 H3          -1.5090    -0.0020    -1.5710 h4         1 ET0       0.165000
     23 H11          4.4120     0.0010     1.4860 ha         1 ET0       0.121000
     24 H12          6.1610     0.8860     0.7730 h1         1 ET0       0.031033
     25 H12A         6.1620    -0.8830     0.7740 h1         1 ET0       0.031033
     26 H12B         7.3420     0.0010    -0.2030 h1         1 ET0       0.031033
     27 HN1         -0.5750    -0.0040     0.8190 hn         1 ET0       0.279700
     28 C7           0.4820     0.0100    -3.6500 c3         1 ET0      -0.000200
@<TRIPOS>BOND
     1     2     1 1
     2     1    11 1
     3     5     2 ar
     4     2    12 ar
     5     9     3 1
     6     3     7 1
     7     3     8 1
     8     6     4 ar
     9     4    12 ar
    10     4    16 1
    11    10    28 1
    12    28     9 1
    13    28    17 1
    14    28    18 1
    15    13     5 ar
    16     5    19 1
    17    13     6 ar
    18    14     6 1
    19     9    20 1
    20     9    21 1
    21    12    10 1
    22    10    11 2
    23    11    22 1
    24    13    23 1
    25    15    14 1
    26    15    24 1
    27    15    25 1
    28    15    26 1
    29     1    27 1
@<TRIPOS>SUBSTRUCTURE
     1 ET0         1 TEMP              0 ****  ****    0 ROOT
