@<TRIPOS>MOLECULE
molecule
   45    47     1     0     0
SMALL
bcc


@<TRIPOS>ATOM
      1 C13          0.0000     0.0000     0.0000 c3         1 ET1      -0.180400
      2 C17          2.3140    -0.6840    -6.9060 ca         1 ET1       0.015000
      3 C20          0.1410    -2.4000    -6.9570 ca         1 ET1      -0.214000
      4 C21          1.0520    -2.4670    -5.9210 ca         1 ET1       0.015000
      5 N01          2.7910    -0.6900    -3.3900 na         1 ET1      -0.215900
      6 C02          2.3870    -1.0760    -2.1420 cc         1 ET1      -0.123100
      7 C03          2.0330    -0.0010    -1.4210 cd         1 ET1      -0.078400
      8 C04          2.2250     1.1720    -2.2780 ca         1 ET1      -0.038800
      9 C05          2.7110     0.6820    -3.5030 ca         1 ET1      -0.067200
     10 C06          2.3210     3.4120    -3.1340 ca         1 ET1       0.107100
     11 C07          2.7960     2.9240    -4.3480 ca         1 ET1      -0.200000
     12 C08          2.9930     1.5740    -4.5340 ca         1 ET1      -0.112000
     13 C09          2.0360     2.5440    -2.0990 ca         1 ET1      -0.101000
     14 O10          2.1320     4.7480    -2.9690 os         1 ET1      -0.327900
     15 C11          2.4430     5.5900    -4.0810 c3         1 ET1       0.132700
     16 C12          1.5300     0.0000     0.0000 c3         1 ET1      -0.006200
     17 C14         -0.5020     0.0000     1.4210 c          1 ET1       0.890600
     18 C16          2.1410    -1.6150    -5.8980 ca         1 ET1      -0.349500
     19 C18          1.3990    -0.6040    -7.9390 ca         1 ET1      -0.214000
     20 C19          0.3090    -1.4620    -7.9660 ca         1 ET1       0.190100
     21 O22          4.5220    -1.1700    -5.0830 o          1 ET1      -0.629800
     22 O23          3.2070    -3.0300    -4.0550 o          1 ET1      -0.629800
     23 O24          0.2830     0.0010     2.3390 o          1 ET1      -0.852800
     24 O25         -1.8220     0.0000     1.6650 o          1 ET1      -0.852800
     25 O26         -0.5860    -1.3930    -8.9860 os         1 ET1      -0.325900
     26 C27         -0.3500    -0.4040    -9.9910 c3         1 ET1       0.127700
     27 H13         -0.3610     0.8850    -0.5110 hc         1 ET1       0.032700
     28 H13A        -0.3610    -0.8850    -0.5110 hc         1 ET1       0.032700
     29 H21          0.9200    -3.1970    -5.1310 ha         1 ET1       0.155500
     30 H02          2.3580    -2.1000    -1.7870 h4         1 ET1       0.194000
     31 H07          3.0170     3.6140    -5.1540 ha         1 ET1       0.127000
     32 H08          3.3630     1.2050    -5.4830 ha         1 ET1       0.124000
     33 H09          1.6660     2.9250    -1.1550 ha         1 ET1       0.164000
     34 H11          3.4880     5.4740    -4.3400 h1         1 ET1       0.033367
     35 H11A         2.2490     6.6220    -3.8180 h1         1 ET1       0.033367
     36 H11B         1.8280     5.3110    -4.9280 h1         1 ET1       0.033367
     37 H12          1.8910     0.8850     0.5100 hc         1 ET1       0.059200
     38 H12A         1.8910    -0.8840     0.5110 hc         1 ET1       0.059200
     39 H18          1.5340     0.1270    -8.7270 ha         1 ET1       0.143000
     40 H27          0.6080    -0.5890   -10.4620 h1         1 ET1       0.042700
     41 H27A        -1.1350    -0.4520   -10.7360 h1         1 ET1       0.042700
     42 H27B        -0.3450     0.5790    -9.5360 h1         1 ET1       0.042700
     43 H17          3.1660    -0.0160    -6.8850 ha         1 ET1       0.155500
     44 S15          3.3090    -1.7140    -4.5840 sy         1 ET1       1.421300
     45 H20         -0.7110    -3.0690    -6.9760 ha         1 ET1       0.143000
@<TRIPOS>BOND
     1     1    16 1
     2     1    17 1
     3     1    27 1
     4     1    28 1
     5    18     2 ar
     6     2    19 ar
     7     2    43 1
     8     4     3 ar
     9     3    20 ar
    10     3    45 1
    11    18     4 ar
    12     4    29 1
    13     9     5 1
    14     5     6 1
    15     5    44 1
    16     7     6 2
    17     6    30 1
    18     8     7 1
    19     7    16 1
    20    13     8 ar
    21     8     9 ar
    22    12     9 ar
    23    14    10 1
    24    10    11 ar
    25    10    13 ar
    26    11    12 ar
    27    11    31 1
    28    12    32 1
    29    13    33 1
    30    14    15 1
    31    15    34 1
    32    15    35 1
    33    15    36 1
    34    16    37 1
    35    16    38 1
    36    23    17 1
    37    17    24 1
    38    22    44 2
    39    21    44 2
    40    44    18 1
    41    19    20 ar
    42    19    39 1
    43    20    25 1
    44    25    26 1
    45    26    40 1
    46    26    41 1
    47    26    42 1
@<TRIPOS>SUBSTRUCTURE
     1 ET1         1 TEMP              0 ****  ****    0 ROOT
