@<TRIPOS>MOLECULE
ET1
   45    48     1     0     0
SMALL
bcc


@<TRIPOS>ATOM
      1 C13         0.9290    1.3190    0.0230 c3        1 ET1     -0.196400
      2 C17         1.9290   -0.9850   -6.3560 ce        1 ET1     -0.031300
      3 C20         0.3050   -2.6550   -7.9390 cf        1 ET1     -0.257000
      4 C21         0.5210   -2.9610   -6.5540 cf        1 ET1      0.106000
      5 N01         2.3500   -1.2940   -3.4980 na        1 ET1     -0.534100
      6 C02         2.4210   -1.0350   -2.0970 cc        1 ET1     -0.011000
      7 C03         2.2580    0.3010   -1.8210 cd        1 ET1     -0.047200
      8 C04         2.0720    1.0200   -3.1050 cd        1 ET1     -0.077000
      9 C05         2.1640   -0.0370   -4.1380 cd        1 ET1      0.211900
     10 C06         1.7570    3.4880   -2.5810 cx        1 ET1      0.127000
     11 C07         0.3800    3.9260   -2.1230 cx        1 ET1     -0.148900
     12 C08         2.2020   -0.0060   -5.4940 c1        1 ET1     -0.207800
     13 C09         1.8770    2.3050   -3.4490 c2        1 ET1      0.005800
     14 O10         2.8630    3.6990   -1.7620 oh        1 ET1     -0.597800
     15 C11         1.1030    4.7380   -3.1530 cx        1 ET1     -0.148900
     16 C12         2.2960    0.8950   -0.4730 c3        1 ET1     -0.023200
     17 C14         1.0520    2.3970    1.1130 c         1 ET1      0.911600
     18 C16         1.3500   -2.2110   -5.7850 ce        1 ET1     -0.421100
     19 C18         2.1110   -0.9110   -7.8250 c3        1 ET1     -0.022000
     20 C19         1.0730   -1.7050   -8.5470 c2        1 ET1      0.153900
     21 O22         3.0410   -3.5180   -4.4460 o         1 ET1     -0.649300
     22 O23         0.8580   -3.3430   -3.5750 o         1 ET1     -0.649300
     23 O24         0.7340    2.1020    2.2940 o         1 ET1     -0.847800
     24 O25         1.4460    3.5550    0.7620 o         1 ET1     -0.847800
     25 O26         0.8780   -1.5330   -9.8980 os        1 ET1     -0.326900
     26 C27         1.6790   -0.5460  -10.5420 c3        1 ET1      0.110700
     27 H13         0.3760    0.4380    0.4300 hc        1 ET1      0.032700
     28 H13A        0.3320    1.7510   -0.8210 hc        1 ET1      0.032700
     29 H21         0.0210   -3.8590   -6.1480 ha        1 ET1      0.146000
     30 H02         2.5910   -1.8670   -1.4090 h4        1 ET1      0.175000
     31 H07        -0.4970    3.3300   -2.4260 hc        1 ET1      0.082950
     32 H08         0.3040    4.2930   -1.0750 hc        1 ET1      0.082950
     33 H09         1.7680    2.5320   -4.5290 ha        1 ET1      0.135000
     34 H11         2.5380    3.7360   -0.8340 ho        1 ET1      0.480000
     35 H11A        0.7480    4.7240   -4.1970 hc        1 ET1      0.082950
     36 H11B        1.5240    5.7150   -2.8620 hc        1 ET1      0.082950
     37 H12         2.9830    1.7860   -0.4850 hc        1 ET1      0.062200
     38 H12A        2.7330    0.1520    0.2480 hc        1 ET1      0.062200
     39 H18         2.0710    0.1670   -8.1440 hc        1 ET1      0.083700
     40 H27         1.4030    0.4750  -10.1840 h1        1 ET1      0.048700
     41 H27A        2.7660   -0.7420  -10.3760 h1        1 ET1      0.048700
     42 H27B        1.4170   -0.6680  -11.6240 h1        1 ET1      0.048700
     43 H17         3.1280   -1.3090   -8.1050 hc        1 ET1      0.083700
     44 S15         1.9090   -2.7060   -4.2600 sy        1 ET1      1.496800
     45 H20        -0.4510   -3.2210   -8.5000 ha        1 ET1      0.150000
@<TRIPOS>BOND
     1    1   16 1   
     2    1   17 1   
     3    1   27 1   
     4    1   28 1   
     5    2   12 2   
     6    2   18 1   
     7    2   19 1   
     8    3    4 1   
     9    3   20 2   
    10    3   45 1   
    11    4   18 2   
    12    4   29 1   
    13    5    6 1   
    14    5    9 1   
    15    5   44 1   
    16    6    7 2   
    17    6   30 1   
    18    7    8 1   
    19    7   16 1   
    20    8    9 1   
    21    8   13 2   
    22    9   12 2   
    23   10   11 1   
    24   10   13 1   
    25   10   14 1   
    26   10   15 1   
    27   11   15 1   
    28   11   31 1   
    29   11   32 1   
    30   13   33 1   
    31   14   34 1   
    32   15   35 1   
    33   15   36 1   
    34   16   37 1   
    35   16   38 1   
    36   17   23 1   
    37   17   24 1   
    38   18   44 1   
    39   19   20 1   
    40   19   39 1   
    41   19   43 1   
    42   20   25 1   
    43   21   44 2   
    44   22   44 2   
    45   25   26 1   
    46   26   40 1   
    47   26   41 1   
    48   26   42 1   
@<TRIPOS>SUBSTRUCTURE
     1 ET1         1 TEMP              0 ****  ****    0 ROOT
