@<TRIPOS>MOLECULE
molecule
   17    18     1     0     0
SMALL
bcc


@<TRIPOS>ATOM
      1 NAA          0.0000     0.0000     0.0000 nv         1 ET2      -1.007800
      2 CAC          5.8070     0.0000     0.9930 ca         1 ET2      -0.182000
      3 CAD          4.8540     0.0000     0.0000 ca         1 ET2      -0.047000
      4 CAE          4.0960     0.0000     2.6810 ca         1 ET2      -0.174000
      5 NAF          1.7380    -0.0000     1.7070 na         1 ET2      -0.278300
      6 NAG          2.3530     0.0000    -0.3940 nc         1 ET2      -0.604100
      7 CAH          5.4320     0.0000     2.3300 ca         1 ET2       0.144900
      8 CAI          1.3180    -0.0000     0.4080 cd         1 ET2       0.641700
      9 CAJ          3.1230     0.0000     1.6910 ca         1 ET2      -0.070200
     10 CAK          3.4990     0.0000     0.3380 ca         1 ET2       0.083400
     11 HNAA        -0.5110    -0.8600    -0.0420 hn         1 ET2       0.446800
     12 HNAB        -0.4380     0.8560    -0.2770 hn         1 ET2       0.446800
     13 HAC          6.8580     0.0000     0.7300 ha         1 ET2       0.148000
     14 HAD          5.1540     0.0000    -1.0410 ha         1 ET2       0.149000
     15 HAE          3.8090    -0.0810     3.7220 ha         1 ET2       0.141000
     16 HNAF         1.1590     0.1300     2.5120 hn         1 ET2       0.301700
     17 FAB          6.3780    -0.0000     3.2940 f          1 ET2      -0.139900
@<TRIPOS>BOND
     1     1     8 1
     2    17     7 1
     3     2     3 ar
     4     2     7 ar
     5     3    10 ar
     6     4     7 ar
     7     4     9 ar
     8     5     8 1
     9     5     9 1
    10     6     8 2
    11     6    10 1
    12     9    10 ar
    13     1    11 1
    14     1    12 1
    15     2    13 1
    16     3    14 1
    17     4    15 1
    18     5    16 1
@<TRIPOS>SUBSTRUCTURE
     1 ET2         1 TEMP              0 ****  ****    0 ROOT
