@<TRIPOS>MOLECULE
molecule
   34    37     1     0     0
SMALL
bcc


@<TRIPOS>ATOM
      1 C18          0.0000     0.0000     0.0000 ca         1 ET8       0.424200
      2 N19          1.3190     0.0000     0.0000 nb         1 ET8      -0.696000
      3 C20          2.0190     0.0000     1.1190 ca         1 ET8       0.424200
      4 C17         -0.7090     0.0010     1.1840 ca         1 ET8      -0.255300
      5 C16         -0.0080    -0.0040     2.3930 cp         1 ET8       0.015000
      6 C21          1.3890     0.0010     2.3470 ca         1 ET8      -0.255300
      7 C5          -0.7270    -0.0010     3.6900 cp         1 ET8      -0.090000
      8 C4          -0.0110    -0.0070     4.8780 ca         1 ET8      -0.038000
      9 C3          -0.6970    -0.0040     6.0920 ca         1 ET8      -0.239900
     10 C2          -2.1050     0.0030     6.1020 ca         1 ET8      -0.012200
     11 C1          -2.8030     0.0070     4.8960 ca         1 ET8      -0.158000
     12 C6          -2.1270     0.0110     3.7120 ca         1 ET8      -0.069000
     13 N7          -2.4940     0.0030     7.4180 na         1 ET8      -0.049100
     14 N8          -1.3600    -0.0030     8.2350 nc         1 ET8      -0.492100
     15 C9          -0.2760    -0.0080     7.4980 cd         1 ET8       0.428500
     16 C10          1.1210    -0.0150     7.9940 ca         1 ET8      -0.095900
     17 C11          2.1080    -0.7050     7.2940 ca         1 ET8      -0.104500
     18 C12          3.4070    -0.7080     7.7610 ca         1 ET8      -0.131500
     19 C13          3.7300    -0.0280     8.9210 ca         1 ET8      -0.118000
     20 C14          2.7530     0.6580     9.6210 ca         1 ET8      -0.131500
     21 C15          1.4530     0.6740     9.1600 ca         1 ET8      -0.104500
     22 H1          -0.5340     0.0020    -0.9420 h4         1 ET8       0.022600
     23 H2           3.1010     0.0020     1.0730 h4         1 ET8       0.022600
     24 H3          -1.7920    -0.0010     1.1760 ha         1 ET8       0.138500
     25 H4           1.9690    -0.0010     3.2620 ha         1 ET8       0.138500
     26 H5           1.0640     0.1240     4.8630 ha         1 ET8       0.142000
     27 H6          -3.8870     0.0170     4.9000 ha         1 ET8       0.133000
     28 H7          -2.6790     0.0230     2.7800 ha         1 ET8       0.138000
     29 H8          -3.4410     0.0080     7.7410 hn         1 ET8       0.334700
     30 H9           1.8570    -1.2380     6.3850 ha         1 ET8       0.140500
     31 H10          4.1760    -1.2440     7.2170 ha         1 ET8       0.133500
     32 H11          4.7500    -0.0350     9.2850 ha         1 ET8       0.131000
     33 H12          3.0120     1.1910    10.5280 ha         1 ET8       0.133500
     34 H13          0.6890     1.2110     9.7090 ha         1 ET8       0.140500
@<TRIPOS>BOND
     1     3     2 ar
     2     3     6 ar
     3     2     1 ar
     4     6     5 ar
     5     1     4 ar
     6    12     7 ar
     7    12    11 ar
     8     5     4 ar
     9     5     7 1
    10     7     8 ar
    11    11    10 ar
    12     8     9 ar
    13    10     9 ar
    14    10    13 1
    15     9    15 1
    16    13    14 1
    17    15    14 2
    18    15    16 1
    19    17    16 ar
    20    17    18 ar
    21    16    21 ar
    22    18    19 ar
    23    21    20 ar
    24    19    20 ar
    25     1    22 1
    26     3    23 1
    27     4    24 1
    28     6    25 1
    29     8    26 1
    30    11    27 1
    31    12    28 1
    32    13    29 1
    33    17    30 1
    34    18    31 1
    35    19    32 1
    36    20    33 1
    37    21    34 1
@<TRIPOS>SUBSTRUCTURE
     1 ET8         1 TEMP              0 ****  ****    0 ROOT
