@<TRIPOS>MOLECULE
molecule
   47    49     1     0     0
SMALL
bcc


@<TRIPOS>ATOM
      1 C1'          0.0000     0.0000     0.0000 c3         1 ET9       0.084200
      2 C2          -2.6350     2.7370    -2.4870 cc         1 ET9       0.733100
      3 C2'          1.5490     0.0000     0.0000 c3         1 ET9      -0.119400
      4 C3'          1.8800     0.0000     1.5140 c3         1 ET9       0.134100
      5 C4          -1.3070     2.0560    -0.6460 cd         1 ET9      -0.025000
      6 C4'          0.7890    -0.9030     2.1270 c3         1 ET9      -0.057500
      7 C5          -1.5430     3.2860    -0.0430 cc         1 ET9       0.194800
      8 C5'          0.3520    -0.3480     3.4850 c3         1 ET9       0.245400
      9 C6          -2.3740     4.2580    -0.7600 c          1 ET9       0.652000
     10 C6'         -0.3790    -0.8980     1.1640 c2         1 ET9      -0.177400
     11 C8          -0.2790     2.1470     1.2950 cd         1 ET9       0.384400
     12 N1          -2.8800     3.9140    -1.9540 nd         1 ET9      -0.812100
     13 N2          -3.1750     2.4430    -3.7120 nz         1 ET9      -0.810600
     14 N3          -1.8640     1.8020    -1.8730 na         1 ET9      -0.692600
     15 N7          -0.8910     3.2880     1.1430 nc         1 ET9      -0.626000
     16 N9          -0.5120     1.3560     0.2080 na         1 ET9      -0.195900
     17 O1B         -1.8150    -2.5080     8.4580 o          1 ET9      -0.730500
     18 O1G         -4.0040    -6.7750     7.6090 o          1 ET9      -0.654167
     19 O2B         -4.1330    -1.9620     7.6240 o          1 ET9      -0.730500
     20 O2G         -2.0810    -5.8780     9.1610 o          1 ET9      -0.654167
     21 O3'          3.1770    -0.5510     1.7460 oh         1 ET9      -0.603800
     22 O3B         -3.0730    -4.3410     7.2640 os         1 ET9      -0.719800
     23 O3G         -4.4240    -4.9510     9.3010 o          1 ET9      -0.654167
     24 O5'         -0.5710    -1.2530     4.0950 os         1 ET9      -0.583200
     25 PA          -1.2390    -0.9870     5.5350 p5         1 ET9       1.417800
     26 PB          -2.7640    -2.7640     7.3520 p5         1 ET9       1.548800
     27 PG          -3.4160    -5.4750     8.3550 p5         1 ET9       1.300900
     28 H1          -0.3750    -0.4130    -0.9290 h1         1 ET9       0.045700
     29 H2           1.9330    -0.8940    -0.4760 hc         1 ET9       0.048700
     30 H3           1.9330     0.8940    -0.4760 hc         1 ET9       0.048700
     31 H4           1.8090     1.0030     1.9160 h1         1 ET9       0.052700
     32 H5           1.1680    -1.9120     2.2400 hc         1 ET9       0.084700
     33 H6          -1.9510    -1.4610     0.3240 ha         1 ET9       0.131500
     34 H7          -1.7650    -2.2070     2.1280 ha         1 ET9       0.131500
     35 H8           1.2250    -0.5210     4.1030 h1         1 ET9       0.018700
     36 H9           0.3740     0.7330     3.4170 h1         1 ET9       0.018700
     37 H10          0.0460     1.7370     2.2430 h5         1 ET9       0.096100
     38 H11         -3.6970     3.2300    -4.0430 hn         1 ET9       0.265467
     39 H12         -3.7820     1.6520    -3.6280 hn         1 ET9       0.265467
     40 H13         -1.7050     0.9200    -2.3170 hn         1 ET9       0.386800
     41 H18          3.7940     0.1470     1.8920 ho         1 ET9       0.389000
     42 C44         -1.5070    -1.5470     1.3090 c2         1 ET9      -0.118000
     43 O1A         -2.1850     0.3130     5.4550 o          1 ET9      -0.827000
     44 O2A         -0.1740    -0.7600     6.5380 o          1 ET9      -0.827000
     45 O3A         -2.1170    -2.2660     5.9650 os         1 ET9      -0.726800
     46 H23         -2.4400     2.2450    -4.3610 hn         1 ET9       0.265467
     47 O6          -2.6130     5.3540    -0.2730 o          1 ET9      -0.600100
@<TRIPOS>BOND
     1    47     9 2
     2     9     7 1
     3     9    12 1
     4    15     7 1
     5    15    11 2
     6     7     5 2
     7    12     2 2
     8    42    10 2
     9    11    16 1
    10     5    16 1
    11     5    14 1
    12     2    14 1
    13     2    13 1
    14    16     1 1
    15    10     1 1
    16    10     6 1
    17     1     3 1
    18    44    25 1
    19    24     8 1
    20    24    25 1
    21     8     6 1
    22    25    43 1
    23    25    45 1
    24     6     4 1
    25     3     4 1
    26     4    21 1
    27    45    26 1
    28    17    26 1
    29    26    19 1
    30    26    22 1
    31    23    27 1
    32    18    27 1
    33    22    27 1
    34    27    20 1
    35     1    28 1
    36     3    29 1
    37     3    30 1
    38     4    31 1
    39     6    32 1
    40    42    33 1
    41    42    34 1
    42     8    35 1
    43     8    36 1
    44    11    37 1
    45    13    38 1
    46    13    39 1
    47    14    40 1
    48    21    41 1
    49    46    13 1
@<TRIPOS>SUBSTRUCTURE
     1 ET9         1 TEMP              0 ****  ****    0 ROOT
