@<TRIPOS>MOLECULE
molecule
   48    51     1     0     0
SMALL
bcc


@<TRIPOS>ATOM
      1 C22          0.0000     0.0000     0.0000 c3         1 ETC      -0.094600
      2 C21          1.5300     0.0000     0.0000 c3         1 ETC      -0.080400
      3 C11          2.0400     0.0000     1.4430 c3         1 ETC      -0.023500
      4 C12          1.6200     1.3000     2.1250 c3         1 ETC      -0.030100
      5 C9           3.5390    -0.1370     1.4390 ce         1 ETC      -0.051400
      6 C8           4.3250     0.9350     1.2640 cf         1 ETC      -0.051400
      7 C14          3.7140     2.2690     1.1310 ca         1 ETC      -0.053300
      8 C15          4.4420     3.3420     0.6160 ca         1 ETC      -0.105000
      9 C16          3.8480     4.5810     0.5030 ca         1 ETC      -0.156000
     10 C17          2.5290     4.7610     0.9010 ca         1 ETC       0.107100
     11 O25          1.9470     5.9830     0.7810 oh         1 ETC      -0.522100
     12 C18          1.8040     3.6970     1.4240 ca         1 ETC      -0.154000
     13 C13          2.3920     2.4570     1.5450 ca         1 ETC      -0.055800
     14 C10          4.1510    -1.4610     1.6560 ca         1 ETC      -0.053300
     15 C5           5.5060    -1.5420     1.9920 ca         1 ETC      -0.055800
     16 C6           6.3090    -0.2800     2.1620 c3         1 ETC      -0.030100
     17 C7           5.8210     0.7850     1.1800 c3         1 ETC      -0.023500
     18 C20          6.2070     0.3750    -0.2420 c3         1 ETC      -0.080400
     19 C19          7.7310     0.3680    -0.3750 c3         1 ETC      -0.094600
     20 C4           6.0910    -2.7730     2.1840 ca         1 ETC      -0.154000
     21 C3           5.3320    -3.9310     2.0640 ca         1 ETC       0.107100
     22 O23          5.9160    -5.1440     2.2490 oh         1 ETC      -0.522100
     23 C2           3.9800    -3.8520     1.7550 ca         1 ETC      -0.156000
     24 C1           3.3870    -2.6240     1.5550 ca         1 ETC      -0.105000
     25 H221        -0.3610    -0.5240     0.8770 hc         1 ETC       0.034033
     26 H222        -0.3610     1.0210     0.0150 hc         1 ETC       0.034033
     27 H223        -0.3610    -0.4970    -0.8920 hc         1 ETC       0.034033
     28 H211         1.8910     0.8840    -0.5110 hc         1 ETC       0.051450
     29 H212         1.8910    -0.8850    -0.5110 hc         1 ETC       0.051450
     30 H11          1.6080    -0.8370     1.9790 hc         1 ETC       0.059700
     31 H121         1.8470     1.2270     3.1820 hc         1 ETC       0.058450
     32 H122         0.5640     1.4620     1.9450 hc         1 ETC       0.058450
     33 H15          5.4700     3.2020     0.3050 ha         1 ETC       0.139000
     34 H16          4.4090     5.4150     0.0990 ha         1 ETC       0.140000
     35 H25          2.0520     6.4610     1.5870 ho         1 ETC       0.418000
     36 H18          0.7760     3.8420     1.7340 ha         1 ETC       0.140500
     37 HC61         6.1910     0.0860     3.1740 hc         1 ETC       0.058450
     38 HC62         7.3540    -0.4920     1.9700 hc         1 ETC       0.058450
     39 HC7          6.2870     1.7320     1.4230 hc         1 ETC       0.059700
     40 H201         5.7870     1.0800    -0.9480 hc         1 ETC       0.051450
     41 H202         5.8220    -0.6160    -0.4490 hc         1 ETC       0.051450
     42 H191         8.0040     0.5800    -1.4010 hc         1 ETC       0.034033
     43 H192         8.1540     1.1230     0.2760 hc         1 ETC       0.034033
     44 H193         8.1130    -0.6060    -0.0940 hc         1 ETC       0.034033
     45 HC4          7.1390    -2.8390     2.4520 ha         1 ETC       0.140500
     46 H23          5.8890    -5.3700     3.1640 ho         1 ETC       0.418000
     47 HC2          3.3930    -4.7580     1.6630 ha         1 ETC       0.140000
     48 HC1          2.3330    -2.5620     1.3140 ha         1 ETC       0.139000
@<TRIPOS>BOND
     1     1     2 1
     2     1    25 1
     3     1    26 1
     4     1    27 1
     5     2     3 1
     6     2    28 1
     7     2    29 1
     8     3     4 1
     9     3     5 1
    10     3    30 1
    11     4    13 1
    12     4    31 1
    13     4    32 1
    14     5     6 2
    15     5    14 1
    16     6     7 1
    17     6    17 1
    18     7     8 ar
    19     7    13 ar
    20     8     9 ar
    21     8    33 1
    22     9    10 ar
    23     9    34 1
    24    10    11 1
    25    10    12 ar
    26    11    35 1
    27    12    13 ar
    28    12    36 1
    29    14    15 ar
    30    14    24 ar
    31    15    16 1
    32    15    20 ar
    33    16    17 1
    34    16    37 1
    35    16    38 1
    36    17    18 1
    37    17    39 1
    38    18    19 1
    39    18    40 1
    40    18    41 1
    41    19    42 1
    42    19    43 1
    43    19    44 1
    44    20    21 ar
    45    20    45 1
    46    21    22 1
    47    21    23 ar
    48    22    46 1
    49    23    24 ar
    50    23    47 1
    51    24    48 1
@<TRIPOS>SUBSTRUCTURE
     1 ETC         1 TEMP              0 ****  ****    0 ROOT
