@<TRIPOS>MOLECULE
ETC
   48    51     1     0     0
SMALL
bcc


@<TRIPOS>ATOM
      1 C22        -0.0420   -0.5020    0.2090 c3        1 ETC     -0.093600
      2 C21         1.4090   -0.1030    0.1350 c3        1 ETC     -0.082400
      3 C11         2.0190    0.1050    1.5200 c3        1 ETC     -0.019500
      4 C12         1.6840    1.4860    2.0730 c3        1 ETC     -0.037100
      5 C9          3.5020   -0.1140    1.4810 ce        1 ETC     -0.044400
      6 C8          4.3600    0.9230    1.2910 cf        1 ETC     -0.044400
      7 C14         3.8570    2.2820    1.1170 ca        1 ETC     -0.077800
      8 C15         4.6470    3.3110    0.5840 ca        1 ETC     -0.087000
      9 C16         4.1480    4.5990    0.4360 ca        1 ETC     -0.162000
     10 C17         2.8270    4.8680    0.8300 ca        1 ETC      0.128100
     11 O25         2.3870    6.1610    0.6650 oh        1 ETC     -0.497100
     12 C18         2.0160    3.8550    1.3570 ca        1 ETC     -0.215000
     13 C13         2.5290    2.5650    1.4940 ca        1 ETC     -0.026300
     14 C10         4.0050   -1.4710    1.6640 ca        1 ETC     -0.077800
     15 C5          5.3630   -1.6500    1.9950 ca        1 ETC     -0.026300
     16 C6          6.2410   -0.4610    2.1660 c3        1 ETC     -0.037100
     17 C7          5.8430    0.7070    1.2690 c3        1 ETC     -0.019500
     18 C20         6.3330    0.4990   -0.1630 c3        1 ETC     -0.082400
     19 C19         7.7800    0.8850   -0.3290 c3        1 ETC     -0.093600
     20 C4          5.8790   -2.9310    2.1930 ca        1 ETC     -0.215000
     21 C3          5.0390   -4.0430    2.0490 ca        1 ETC      0.128100
     22 O23         5.4800   -5.3340    2.2280 oh        1 ETC     -0.497100
     23 C2          3.6870   -3.8820    1.7060 ca        1 ETC     -0.162000
     24 C1          3.1860   -2.6010    1.5170 ca        1 ETC     -0.087000
     25 H221       -0.6430    0.2690    0.7490 hc        1 ETC      0.032700
     26 H222       -0.1570   -1.4750    0.7460 hc        1 ETC      0.032700
     27 H223       -0.4610   -0.6170   -0.8200 hc        1 ETC      0.032700
     28 H211        1.9850   -0.9010   -0.4060 hc        1 ETC      0.051200
     29 H212        1.5160    0.8420   -0.4590 hc        1 ETC      0.051200
     30 H11         1.5650   -0.6490    2.2270 hc        1 ETC      0.059700
     31 H121        0.5980    1.7010    1.8860 hc        1 ETC      0.056200
     32 H122        1.8390    1.4820    3.1870 hc        1 ETC      0.056200
     33 H15         5.6810    3.1010    0.2650 ha        1 ETC      0.139000
     34 H16         4.7650    5.4060    0.0180 ha        1 ETC      0.150000
     35 H25         1.4700    6.2050    0.9720 ho        1 ETC      0.419000
     36 H18         0.9810    4.0740    1.6580 ha        1 ETC      0.134000
     37 HC61        6.1790   -0.1340    3.2400 hc        1 ETC      0.056200
     38 HC62        7.3100   -0.7340    1.9590 hc        1 ETC      0.056200
     39 HC7         6.3450    1.6270    1.6880 hc        1 ETC      0.059700
     40 H201        5.7050    1.1150   -0.8610 hc        1 ETC      0.051200
     41 H202        6.1890   -0.5760   -0.4490 hc        1 ETC      0.051200
     42 H191        7.9270    1.9700   -0.1060 hc        1 ETC      0.032700
     43 H192        8.1110    0.6940   -1.3790 hc        1 ETC      0.032700
     44 H193        8.4340    0.2950    0.3580 hc        1 ETC      0.032700
     45 HC4         6.9380   -3.0670    2.4570 ha        1 ETC      0.134000
     46 H23         6.4200   -5.2990    2.4580 ho        1 ETC      0.419000
     47 HC2         3.0470   -4.7680    1.5910 ha        1 ETC      0.150000
     48 HC1         2.1260   -2.4790    1.2390 ha        1 ETC      0.139000
@<TRIPOS>BOND
     1    1    2 1   
     2    1   25 1   
     3    1   26 1   
     4    1   27 1   
     5    2    3 1   
     6    2   28 1   
     7    2   29 1   
     8    3    4 1   
     9    3    5 1   
    10    3   30 1   
    11    4   13 1   
    12    4   31 1   
    13    4   32 1   
    14    5    6 2   
    15    5   14 1   
    16    6    7 1   
    17    6   17 1   
    18    7    8 ar  
    19    7   13 ar  
    20    8    9 ar  
    21    8   33 1   
    22    9   10 ar  
    23    9   34 1   
    24   10   11 1   
    25   10   12 ar  
    26   11   35 1   
    27   12   13 ar  
    28   12   36 1   
    29   14   15 ar  
    30   14   24 ar  
    31   15   16 1   
    32   15   20 ar  
    33   16   17 1   
    34   16   37 1   
    35   16   38 1   
    36   17   18 1   
    37   17   39 1   
    38   18   19 1   
    39   18   40 1   
    40   18   41 1   
    41   19   42 1   
    42   19   43 1   
    43   19   44 1   
    44   20   21 ar  
    45   20   45 1   
    46   21   22 1   
    47   21   23 ar  
    48   22   46 1   
    49   23   24 ar  
    50   23   47 1   
    51   24   48 1   
@<TRIPOS>SUBSTRUCTURE
     1 ETC         1 TEMP              0 ****  ****    0 ROOT
