@<TRIPOS>MOLECULE
molecule
    4     3     1     0     0
SMALL
bcc


@<TRIPOS>ATOM
      1 C10          0.0000     0.0000     0.0000 c1         1 ETD      -0.161500
      2 C11          1.1740     0.0000     0.0000 c1         1 ETD      -0.161500
      3 H10         -1.0830     0.0000     0.0190 ha         1 ETD       0.161500
      4 H11          2.2570    -0.0140    -0.0120 ha         1 ETD       0.161500
@<TRIPOS>BOND
     1     1     2 3
     2     1     3 1
     3     2     4 1
@<TRIPOS>SUBSTRUCTURE
     1 ETD         1 TEMP              0 ****  ****    0 ROOT
