@<TRIPOS>MOLECULE
ETE
   34    33     1     0     0
SMALL
bcc


@<TRIPOS>ATOM
      1 OH2        -1.1710    1.2190    1.3770 oh        1 ETE     -0.600800
      2 C12        -0.5700    0.4500    0.3570 c3        1 ETE      0.131400
      3 C22         0.8920    0.1480    0.6670 c3        1 ETE      0.087400
      4 OH3         0.8870   -0.7030    1.8120 os        1 ETE     -0.438600
      5 C13         2.0500   -2.0840    3.3420 c3        1 ETE      0.127400
      6 C23         2.2040   -1.0270    2.2540 c3        1 ETE      0.128400
      7 OH4         2.4730   -3.3190    2.7680 os        1 ETE     -0.428600
      8 C14         2.8980   -5.6360    2.9840 c3        1 ETE      0.127400
      9 C24         2.2370   -4.4260    3.6360 c3        1 ETE      0.127400
     10 OH5         4.0790   -5.9070    3.7370 os        1 ETE     -0.429600
     11 C15         5.9910   -7.2400    4.1340 c3        1 ETE      0.123400
     12 C25         4.8790   -6.9250    3.1390 c3        1 ETE      0.127400
     13 OH6         5.7230   -8.5470    4.6410 os        1 ETE     -0.424600
     14 C26         6.6040   -8.9160    5.6870 c3        1 ETE      0.117700
     15 HO2        -1.0670    0.7250    2.2000 ho        1 ETE      0.412000
     16 H121       -1.1370   -0.5080    0.2110 h1        1 ETE      0.053200
     17 H122       -0.6400    1.0820   -0.5670 h1        1 ETE      0.053200
     18 H221        1.4530    1.0920    0.9010 h1        1 ETE      0.039200
     19 H222        1.3790   -0.3770   -0.1960 h1        1 ETE      0.039200
     20 H131        2.7060   -1.8410    4.2190 h1        1 ETE      0.043200
     21 H132        0.9820   -2.1580    3.6780 h1        1 ETE      0.043200
     22 H231        2.8150   -1.4220    1.3990 h1        1 ETE      0.045200
     23 H232        2.6880   -0.1040    2.6690 h1        1 ETE      0.045200
     24 H141        2.2180   -6.5270    3.0330 h1        1 ETE      0.043700
     25 H142        3.1620   -5.4190    1.9150 h1        1 ETE      0.043700
     26 H241        1.1310   -4.5900    3.7310 h1        1 ETE      0.044200
     27 H242        2.6790   -4.2280    4.6480 h1        1 ETE      0.044200
     28 H151        6.0010   -6.4940    4.9720 h1        1 ETE      0.042700
     29 H152        6.9890   -7.2430    3.6210 h1        1 ETE      0.042700
     30 H251        5.3090   -6.5370    2.1790 h1        1 ETE      0.043200
     31 H252        4.2580   -7.8370    2.9340 h1        1 ETE      0.043200
     32 H261        6.5000   -8.2200    6.5560 h1        1 ETE      0.032700
     33 H262        6.2830   -9.9490    5.9720 h1        1 ETE      0.032700
     34 H263        7.6630   -8.9200    5.3280 h1        1 ETE      0.032700
@<TRIPOS>BOND
     1    1    2 1   
     2    1   15 1   
     3    2    3 1   
     4    2   16 1   
     5    2   17 1   
     6    3    4 1   
     7    3   18 1   
     8    3   19 1   
     9    4    6 1   
    10    5    6 1   
    11    5    7 1   
    12    5   20 1   
    13    5   21 1   
    14    6   22 1   
    15    6   23 1   
    16    7    9 1   
    17    8    9 1   
    18    8   10 1   
    19    8   24 1   
    20    8   25 1   
    21    9   26 1   
    22    9   27 1   
    23   10   12 1   
    24   11   12 1   
    25   11   13 1   
    26   11   28 1   
    27   11   29 1   
    28   12   30 1   
    29   12   31 1   
    30   13   14 1   
    31   14   32 1   
    32   14   33 1   
    33   14   34 1   
@<TRIPOS>SUBSTRUCTURE
     1 ETE         1 TEMP              0 ****  ****    0 ROOT
