@<TRIPOS>MOLECULE
molecule
   34    33     1     0     0
SMALL
bcc


@<TRIPOS>ATOM
      1 OH2          0.0000     0.0000     0.0000 oh         1 ETE      -0.598800
      2 C12          1.4290     0.0000     0.0000 c3         1 ETE       0.142400
      3 C22          1.9370     0.0000     1.4420 c3         1 ETE       0.128400
      4 OH3          1.4600    -1.1660     2.1160 os         1 ETE      -0.381600
      5 C13          1.4920    -2.3340     4.2310 c3         1 ETE       0.126400
      6 C23          1.9680    -1.1080     3.4510 c3         1 ETE       0.126400
      7 OH4          1.9680    -3.5200     3.5930 os         1 ETE      -0.384600
      8 C14          1.9710    -5.9320     3.7310 c3         1 ETE       0.126400
      9 C24          1.4930    -4.6240     4.3650 c3         1 ETE       0.127400
     10 OH5          3.4000    -5.9520     3.7010 os         1 ETE      -0.383600
     11 C15          5.3080    -7.2770     3.0380 c3         1 ETE       0.126400
     12 C25          3.7820    -7.1910     3.1010 c3         1 ETE       0.125400
     13 OH6          5.8450    -7.2020     4.3600 os         1 ETE      -0.396600
     14 C26          7.2650    -7.2870     4.2340 c3         1 ETE       0.114700
     15 HO2         -0.3140     0.0910    -0.8840 ho         1 ETE       0.398000
     16 H121         1.7900    -0.8850    -0.5100 h1         1 ETE       0.027700
     17 H122         1.7900     0.8850    -0.5100 h1         1 ETE       0.027700
     18 H221         1.5760     0.8850     1.9520 h1         1 ETE       0.031700
     19 H222         3.0210    -0.0000     1.4430 h1         1 ETE       0.031700
     20 H131         0.4090    -2.3480     4.2560 h1         1 ETE       0.033200
     21 H132         1.8750    -2.2900     5.2430 h1         1 ETE       0.033200
     22 H231         1.6080    -0.2090     3.9360 h1         1 ETE       0.032700
     23 H232         3.0510    -1.0950     3.4250 h1         1 ETE       0.032700
     24 H141         1.5870    -6.0060     2.7210 h1         1 ETE       0.033200
     25 H142         1.6110    -6.7700     4.3160 h1         1 ETE       0.033200
     26 H241         0.4100    -4.6090     4.3890 h1         1 ETE       0.033200
     27 H242         1.8770    -4.5500     5.3750 h1         1 ETE       0.033200
     28 H151         5.5980    -8.2170     2.5830 h1         1 ETE       0.033700
     29 H152         5.6920    -6.4560     2.4450 h1         1 ETE       0.033700
     30 H251         3.3760    -7.2480     2.0980 h1         1 ETE       0.032200
     31 H252         3.3990    -8.0130     3.6930 h1         1 ETE       0.032200
     32 H261         7.5300    -8.2270     3.7650 h1         1 ETE       0.029367
     33 H262         7.6240    -6.4660     3.6250 h1         1 ETE       0.029367
     34 H263         7.7190    -7.2340     5.2160 h1         1 ETE       0.029367
@<TRIPOS>BOND
     1     1     2 1
     2     1    15 1
     3     2     3 1
     4     2    16 1
     5     2    17 1
     6     3     4 1
     7     3    18 1
     8     3    19 1
     9     4     6 1
    10     5     6 1
    11     5     7 1
    12     5    20 1
    13     5    21 1
    14     6    22 1
    15     6    23 1
    16     7     9 1
    17     8     9 1
    18     8    10 1
    19     8    24 1
    20     8    25 1
    21     9    26 1
    22     9    27 1
    23    10    12 1
    24    11    12 1
    25    11    13 1
    26    11    28 1
    27    11    29 1
    28    12    30 1
    29    12    31 1
    30    13    14 1
    31    14    32 1
    32    14    33 1
    33    14    34 1
@<TRIPOS>SUBSTRUCTURE
     1 ETE         1 TEMP              0 ****  ****    0 ROOT
