@<TRIPOS>MOLECULE
molecule
    9     8     1     0     0
SMALL
bcc


@<TRIPOS>ATOM
      1 C1           0.0000     0.0000     0.0000 c3         1 ETF       0.623900
      2 C2           1.5300     0.0000     0.0000 c3         1 ETF       0.090400
      3 O            2.0060     0.0000     1.3480 oh         1 ETF      -0.588800
      4 F1          -0.4650     0.0000    -1.3190 f          1 ETF      -0.219633
      5 F2          -0.4660    -1.1420     0.6590 f          1 ETF      -0.219633
      6 F3          -0.4660     1.1420     0.6590 f          1 ETF      -0.219633
      7 H21          1.8910     0.8850    -0.5110 h1         1 ETF       0.056700
      8 H22          1.8910    -0.8850    -0.5110 h1         1 ETF       0.056700
      9 HO           2.9490    -0.0000     1.3480 ho         1 ETF       0.420000
@<TRIPOS>BOND
     1     1     2 1
     2     1     4 1
     3     1     5 1
     4     1     6 1
     5     2     3 1
     6     2     7 1
     7     2     8 1
     8     3     9 1
@<TRIPOS>SUBSTRUCTURE
     1 ETF         1 TEMP              0 ****  ****    0 ROOT
