@<TRIPOS>MOLECULE
molecule
   79    83     1     0     0
SMALL
bcc


@<TRIPOS>ATOM
      1 C1           0.0000     0.0000     0.0000 c3         1 ETG      -0.069067
      2 C2           1.5300     0.0000     0.0000 c3         1 ETG      -0.065700
      3 C3           2.0390     0.0000     1.4430 c3         1 ETG      -0.069067
      4 C4           2.0400    -1.2500    -0.7210 c3         1 ETG      -0.056067
      5 C5          -0.5100    -1.2490     0.7220 c3         1 ETG      -0.065700
      6 C6          -0.0010    -1.2480     2.1640 c3         1 ETG      -0.069067
      7 C7           0.0000    -2.4980     0.0010 c3         1 ETG      -0.056067
      8 C8           1.5300    -1.2490     2.1650 c3         1 ETG      -0.065700
      9 C9           1.5300    -2.4980     0.0010 c3         1 ETG      -0.128000
     10 C10          2.0400    -2.4980     1.4440 c3         1 ETG      -0.056067
     11 C11          0.9860    -9.3820    -6.6480 ca         1 ETG      -0.172000
     12 C12          0.4650   -10.2130    -5.6610 ca         1 ETG      -0.091000
     13 C13         -0.8790   -10.3340    -5.4830 ca         1 ETG      -0.140000
     14 C14          0.1520    -8.6570    -7.4720 ca         1 ETG       0.113600
     15 C15         -1.2460    -8.7630    -7.3100 ca         1 ETG      -0.044000
     16 C16         -1.7650    -9.6120    -6.3010 ca         1 ETG       0.050000
     17 C17         -3.1570    -9.7180    -6.1390 ca         1 ETG      -0.314500
     18 C18         -3.9850    -9.0060    -6.9510 ca         1 ETG       0.002000
     19 C19         -3.4740    -8.1710    -7.9420 ca         1 ETG      -0.175000
     20 C20         -2.1310    -8.0440    -8.1280 ca         1 ETG      -0.031000
     21 C22          1.5400    -6.7900    -7.8660 c3         1 ETG       0.157600
     22 C23          1.4200    -8.6080    -9.4620 c3         1 ETG       0.157600
     23 C24          2.0320    -3.7300    -0.7080 c          1 ETG       0.665100
     24 N25          1.7070    -4.9530    -0.2480 ns         1 ETG      -0.580900
     25 C26          2.1950    -6.1500    -0.9380 c3         1 ETG       0.117000
     26 C27          1.6850    -7.3990    -0.2160 c3         1 ETG       0.118400
     27 O28          0.2610    -7.4590    -0.3170 os         1 ETG      -0.419600
     28 C29         -0.3200    -8.5950     0.3270 c3         1 ETG       0.140400
     29 C30         -1.8400    -8.5560     0.1560 c3         1 ETG       0.141400
     30 O31         -2.1680    -8.6980    -1.2290 os         1 ETG      -0.420600
     31 C32         -3.5700    -8.6750    -1.4990 c3         1 ETG       0.128400
     32 C33         -3.8020    -8.8350    -3.0030 c3         1 ETG       0.239800
     33 N34         -3.3470   -10.1600    -3.4300 n7         1 ETG      -0.913100
     34 S36         -3.8260   -10.7690    -4.8930 sy         1 ETG       1.428200
     35 O37         -3.1770   -12.0260    -5.0360 o          1 ETG      -0.641300
     36 O38          2.7290    -3.6180    -1.6950 o          1 ETG      -0.614100
     37 H1          -0.3610     0.8850     0.5100 hc         1 ETG       0.041867
     38 H1A         -0.3610    -0.0000    -1.0210 hc         1 ETG       0.041867
     39 H2           1.8910     0.8840    -0.5110 hc         1 ETG       0.050367
     40 H3           1.6780     0.8850     1.9540 hc         1 ETG       0.041867
     41 H3A          3.1230     0.0000     1.4430 hc         1 ETG       0.041867
     42 H4           3.1240    -1.2500    -0.7200 hc         1 ETG       0.049200
     43 H4A          1.6800    -1.2500    -1.7420 hc         1 ETG       0.049200
     44 H5          -1.5930    -1.2490     0.7210 hc         1 ETG       0.050367
     45 H6          -0.3620    -2.1330     2.6750 hc         1 ETG       0.041867
     46 H6A         -0.3620    -0.3630     2.6740 hc         1 ETG       0.041867
     47 H7          -0.3610    -3.3830     0.5120 hc         1 ETG       0.049200
     48 H7A         -0.3610    -2.4990    -1.0210 hc         1 ETG       0.049200
     49 H8           1.8910    -1.2490     3.1860 hc         1 ETG       0.050367
     50 H10          1.6780    -3.3830     1.9540 hc         1 ETG       0.049200
     51 H10A         3.1230    -2.4990     1.4440 hc         1 ETG       0.049200
     52 H11          2.0590    -9.3030    -6.7700 ha         1 ETG       0.133000
     53 H12          1.1400   -10.7720    -5.0250 ha         1 ETG       0.132000
     54 H13         -1.2660   -10.9860    -4.7090 ha         1 ETG       0.146000
     55 H18         -5.0580    -9.0890    -6.8240 ha         1 ETG       0.152000
     56 H19         -4.1560    -7.6150    -8.5750 ha         1 ETG       0.136000
     57 H20         -1.7480    -7.3920    -8.9030 ha         1 ETG       0.156000
     58 H22          2.4980    -7.2210    -7.5980 h1         1 ETG       0.037867
     59 H22A         1.0360    -6.4460    -6.9710 h1         1 ETG       0.037867
     60 H22B         1.6950    -5.9540    -8.5370 h1         1 ETG       0.037867
     61 H23          0.8690    -9.5110    -9.6930 h1         1 ETG       0.037867
     62 H23A         2.3770    -8.8700    -9.0260 h1         1 ETG       0.037867
     63 H23B         1.5810    -8.0410   -10.3710 h1         1 ETG       0.037867
     64 HN25         1.1450    -5.0450     0.5760 hn         1 ETG       0.319500
     65 H26          1.8330    -6.1500    -1.9590 h1         1 ETG       0.063700
     66 H26A         3.2780    -6.1500    -0.9380 h1         1 ETG       0.063700
     67 H27          1.9720    -7.3550     0.8270 h1         1 ETG       0.031200
     68 H27A         2.1170    -8.2810    -0.6730 h1         1 ETG       0.031200
     69 H29         -0.0750    -8.5770     1.3820 h1         1 ETG       0.034200
     70 H29A         0.0700    -9.5020    -0.1190 h1         1 ETG       0.034200
     71 H30         -2.2880    -9.3670     0.7180 h1         1 ETG       0.034200
     72 H30A        -2.2210    -7.6100     0.5220 h1         1 ETG       0.034200
     73 H32         -3.9870    -7.7320    -1.1680 h1         1 ETG       0.033200
     74 H32A        -4.0530    -9.4880    -0.9710 h1         1 ETG       0.033200
     75 H33         -3.2470    -8.0730    -3.5370 h1         1 ETG       0.059700
     76 H33A        -4.8590    -8.7290    -3.2180 h1         1 ETG       0.059700
     77 HN34        -2.7760   -10.7120    -2.8200 hn         1 ETG       0.461800
     78 N21          0.6840    -7.8280    -8.4580 nh         1 ETG      -0.631000
     79 O35         -5.2370   -10.6120    -4.9510 o          1 ETG      -0.641300
@<TRIPOS>BOND
     1     1     2 1
     2     1     5 1
     3     2     3 1
     4     2     4 1
     5     3     8 1
     6     4     9 1
     7     5     6 1
     8     5     7 1
     9     6     8 1
    10     7     9 1
    11     8    10 1
    12     9    10 1
    13     9    23 1
    14    11    12 ar
    15    11    14 ar
    16    12    13 ar
    17    13    16 ar
    18    14    15 ar
    19    14    78 1
    20    15    16 ar
    21    15    20 ar
    22    16    17 ar
    23    17    18 ar
    24    17    34 1
    25    18    19 ar
    26    19    20 ar
    27    78    21 1
    28    78    22 1
    29    23    24 1
    30    23    36 2
    31    24    25 1
    32    25    26 1
    33    26    27 1
    34    27    28 1
    35    28    29 1
    36    29    30 1
    37    30    31 1
    38    31    32 1
    39    32    33 1
    40    33    34 1
    41    79    34 2
    42    34    35 2
    43     1    37 1
    44     1    38 1
    45     2    39 1
    46     3    40 1
    47     3    41 1
    48     4    42 1
    49     4    43 1
    50     5    44 1
    51     6    45 1
    52     6    46 1
    53     7    47 1
    54     7    48 1
    55     8    49 1
    56    10    50 1
    57    10    51 1
    58    11    52 1
    59    12    53 1
    60    13    54 1
    61    18    55 1
    62    19    56 1
    63    20    57 1
    64    21    58 1
    65    21    59 1
    66    21    60 1
    67    22    61 1
    68    22    62 1
    69    22    63 1
    70    24    64 1
    71    25    65 1
    72    25    66 1
    73    26    67 1
    74    26    68 1
    75    28    69 1
    76    28    70 1
    77    29    71 1
    78    29    72 1
    79    31    73 1
    80    31    74 1
    81    32    75 1
    82    32    76 1
    83    33    77 1
@<TRIPOS>SUBSTRUCTURE
     1 ETG         1 TEMP              0 ****  ****    0 ROOT
