@<TRIPOS>MOLECULE
molecule
    8     7     1     0     0
SMALL
bcc


@<TRIPOS>ATOM
      1 C1           0.0000     0.0000     0.0000 c3         1 ETI       0.104500
      2 C2           1.5300     0.0000     0.0000 c3         1 ETI      -0.092100
      3 I           -0.7210     0.0000     2.0390 i          1 ETI      -0.284900
      4 H11         -0.3610    -0.8850    -0.5110 h1         1 ETI       0.067700
      5 H12         -0.3610     0.8850    -0.5110 h1         1 ETI       0.067700
      6 H21          1.8910     0.8850     0.5110 hc         1 ETI       0.045367
      7 H22          1.8910    -0.8850     0.5110 hc         1 ETI       0.045367
      8 H23          1.8910     0.0000    -1.0210 hc         1 ETI       0.045367
@<TRIPOS>BOND
     1     1     2 1
     2     1     3 1
     3     1     4 1
     4     1     5 1
     5     2     6 1
     6     2     7 1
     7     2     8 1
@<TRIPOS>SUBSTRUCTURE
     1 ETI         1 TEMP              0 ****  ****    0 ROOT
