@<TRIPOS>MOLECULE
ETI
    8     7     1     0     0
SMALL
bcc


@<TRIPOS>ATOM
      1 C1          0.0230    0.0010    0.0340 c3        1 ETI      0.069500
      2 C2          1.5200   -0.0010    0.0110 c3        1 ETI     -0.092100
      3 I          -0.7730    0.0010    1.9440 i         1 ETI     -0.255900
      4 H11        -0.3810   -0.9030   -0.4780 h1        1 ETI      0.070700
      5 H12        -0.3780    0.9070   -0.4760 h1        1 ETI      0.070700
      6 H21         1.9330   -0.9090    0.5150 hc        1 ETI      0.045700
      7 H22         1.8800   -0.0010   -1.0490 hc        1 ETI      0.045700
      8 H23         1.9360    0.9040    0.5170 hc        1 ETI      0.045700
@<TRIPOS>BOND
     1    1    2 1   
     2    1    3 1   
     3    1    4 1   
     4    1    5 1   
     5    2    6 1   
     6    2    7 1   
     7    2    8 1   
@<TRIPOS>SUBSTRUCTURE
     1 ETI         1 TEMP              0 ****  ****    0 ROOT
