@<TRIPOS>MOLECULE
molecule
   61    63     1     0     0
SMALL
bcc


@<TRIPOS>ATOM
      1 F14          0.0000     0.0000     0.0000 f          1 ETK      -0.077900
      2 C11          1.3510     0.0000     0.0000 ca         1 ETK       0.144900
      3 C10          2.0450     0.0000     1.2050 ca         1 ETK       0.036900
      4 S16          1.1660     0.0000     2.7310 ss         1 ETK      -0.261000
      5 C17          0.9600    -1.7670     3.0840 c3         1 ETK       0.027700
      6 C18          0.2010    -1.9390     4.4010 c3         1 ETK      -0.010100
      7 C19          0.0310    -3.4070     4.6960 ca         1 ETK      -0.131300
      8 C24         -1.0840    -4.0790     4.2260 ca         1 ETK      -0.149500
      9 C23         -1.2420    -5.4240     4.4860 ca         1 ETK      -0.096500
     10 C22         -0.2760    -6.1070     5.2260 ca         1 ETK      -0.092600
     11 C25         -0.4390    -7.5480     5.5080 c          1 ETK       0.875200
     12 O27          0.4960    -8.2050     6.2230 o          1 ETK      -0.792800
     13 O26         -1.4160    -8.1410     5.0970 o          1 ETK      -0.792800
     14 C21          0.8460    -5.4230     5.6980 ca         1 ETK      -0.096500
     15 C20          0.9920    -4.0780     5.4300 ca         1 ETK      -0.149500
     16 C12          2.0430    -0.0060    -1.2000 ca         1 ETK       0.161900
     17 F13          1.3670    -0.0110    -2.3680 f          1 ETK      -0.097900
     18 C7           3.4280    -0.0070    -1.2010 ca         1 ETK      -0.340500
     19 S4           4.3050    -0.0150    -2.7300 sy         1 ETK       1.231200
     20 O5           5.5880    -0.5580    -2.4540 o          1 ETK      -0.519800
     21 N1           4.5490     1.5650    -3.1630 nz         1 ETK      -0.806500
     22 O6           3.4200    -0.5630    -3.6980 o          1 ETK      -0.519800
     23 C8           4.1260    -0.0020    -0.0010 ca         1 ETK       0.200600
     24 C9           3.4350    -0.0010     1.2040 ca         1 ETK       0.131900
     25 F15          4.1130    -0.0020     2.3720 f          1 ETK      -0.090900
     26 N58          5.5260    -0.0010    -0.0050 nu         1 ETK      -0.832600
     27 C28          6.0550     1.1890     0.6720 c3         1 ETK       0.184500
     28 C35          6.1180     2.3540    -0.3170 c3         1 ETK      -0.079400
     29 C34          6.2800     3.6670     0.4500 c3         1 ETK      -0.089400
     30 C33          5.3320     3.6780     1.6510 c3         1 ETK      -0.092400
     31 C32          6.1460     3.6360     2.9450 c3         1 ETK      -0.080400
     32 C31          6.6730     2.2170     3.1700 c3         1 ETK      -0.092400
     33 C30          7.8520     1.9560     2.2300 c3         1 ETK      -0.089400
     34 C29          7.4590     0.8930     1.2020 c3         1 ETK      -0.079400
     35 H1           0.4020    -2.2330     2.2820 h1         1 ETK       0.073700
     36 H2           1.9340    -2.2340     3.1660 h1         1 ETK       0.073700
     37 H3          -0.7740    -1.4720     4.3200 hc         1 ETK       0.054200
     38 H4           0.7590    -1.4720     5.2040 hc         1 ETK       0.054200
     39 H5          -1.8330    -3.5480     3.6520 ha         1 ETK       0.108500
     40 H6          -2.1150    -5.9490     4.1180 ha         1 ETK       0.156500
     41 H8           1.6000    -5.9470     6.2730 ha         1 ETK       0.156500
     42 H9           1.8620    -3.5460     5.7950 ha         1 ETK       0.108500
     43 H10          5.5180     1.7940    -3.0580 hn         1 ETK       0.488133
     44 H11          4.2780     1.6960    -4.1170 hn         1 ETK       0.488133
     45 H12          6.0270    -0.8670     0.0400 hn         1 ETK       0.471800
     46 H13          5.4090     1.4560     1.5000 h1         1 ETK       0.090700
     47 H14          5.2020     2.3860    -0.8950 hc         1 ETK       0.031450
     48 H15          6.9640     2.2180    -0.9800 hc         1 ETK       0.031450
     49 H16          7.3020     3.7560     0.7980 hc         1 ETK       0.054700
     50 H17          6.0420     4.4980    -0.2040 hc         1 ETK       0.054700
     51 H18          4.7350     4.5820     1.6300 hc         1 ETK       0.050950
     52 H19          4.6840     2.8110     1.6050 hc         1 ETK       0.050950
     53 H20          5.5150     3.9220     3.7770 hc         1 ETK       0.052700
     54 H21          6.9820     4.3220     2.8660 hc         1 ETK       0.052700
     55 H22          7.0020     2.1140     4.1970 hc         1 ETK       0.050950
     56 H23          5.8840     1.5040     2.9640 hc         1 ETK       0.050950
     57 H24          8.6990     1.6040     2.8050 hc         1 ETK       0.054700
     58 H25          8.1130     2.8740     1.7170 hc         1 ETK       0.054700
     59 H26          8.1650     0.9100     0.3790 hc         1 ETK       0.031450
     60 H27          7.4680    -0.0830     1.6720 hc         1 ETK       0.031450
     61 H131         4.0000     2.1610    -2.5750 hn         1 ETK       0.488133
@<TRIPOS>BOND
     1    13    11 1
     2    12    11 1
     3    11    10 1
     4     9    10 ar
     5     9     8 ar
     6    10    14 ar
     7     8     7 ar
     8    14    15 ar
     9     4     5 1
    10     4     3 1
    11     7    15 ar
    12     7     6 1
    13     5     6 1
    14     3     2 ar
    15     3    24 ar
    16     1     2 1
    17    25    24 1
    18     2    16 ar
    19    24    23 ar
    20    16    17 1
    21    16    18 ar
    22    23    18 ar
    23    23    26 1
    24    18    19 1
    25    26    27 1
    26    27    34 1
    27    27    28 1
    28    34    33 1
    29    29    28 1
    30    29    30 1
    31    33    32 1
    32    21    19 1
    33    19    22 2
    34    19    20 2
    35    30    31 1
    36    32    31 1
    37     5    35 1
    38     5    36 1
    39     6    37 1
    40     6    38 1
    41     8    39 1
    42     9    40 1
    43    14    41 1
    44    15    42 1
    45    21    43 1
    46    21    44 1
    47    26    45 1
    48    27    46 1
    49    28    47 1
    50    28    48 1
    51    29    49 1
    52    29    50 1
    53    30    51 1
    54    30    52 1
    55    31    53 1
    56    31    54 1
    57    32    55 1
    58    32    56 1
    59    33    57 1
    60    33    58 1
    61    34    59 1
    62    34    60 1
    63    61    21 1
@<TRIPOS>SUBSTRUCTURE
     1 ETK         1 TEMP              0 ****  ****    0 ROOT
