@<TRIPOS>MOLECULE
ETK
   61    63     1     0     0
SMALL
bcc


@<TRIPOS>ATOM
      1 F14          0.0000     0.0000     0.0000 f          1 ETK      -0.079900
      2 C11          1.3510     0.0000     0.0000 ca         1 ETK       0.142900
      3 C10          2.0450     0.0000     1.2050 ca         1 ETK       0.058900
      4 S16          1.1660     0.0000     2.7310 ss         1 ETK      -0.332000
      5 C17          0.9600    -1.7670     3.0840 c3         1 ETK       0.118700
      6 C18          0.2010    -1.9390     4.4010 c3         1 ETK       0.063900
      7 C19          0.0310    -3.4070     4.6960 ca         1 ETK      -0.149300
      8 C24         -1.0840    -4.0790     4.2260 ca         1 ETK      -0.129000
      9 C23         -1.2420    -5.4240     4.4860 ca         1 ETK      -0.066500
     10 C22         -0.2760    -6.1070     5.2260 ca         1 ETK      -0.094600
     11 C25         -0.4390    -7.5480     5.5080 c          1 ETK       0.963200
     12 O27          0.4960    -8.2050     6.2230 o          1 ETK      -0.831300
     13 O26         -1.4160    -8.1410     5.0970 o          1 ETK      -0.831300
     14 C21          0.8460    -5.4230     5.6980 ca         1 ETK      -0.066500
     15 C20          0.9920    -4.0780     5.4300 ca         1 ETK      -0.129000
     16 C12          2.0430    -0.0060    -1.2000 ca         1 ETK       0.163900
     17 F13          1.3670    -0.0110    -2.3680 f          1 ETK      -0.091900
     18 C7           3.4280    -0.0070    -1.2010 ca         1 ETK      -0.206500
     19 S4           4.3050    -0.0150    -2.7300 sy         1 ETK       0.925200
     20 O5           5.5880    -0.5580    -2.4540 o          1 ETK      -0.493300
     21 N1           4.5490     1.5650    -3.1630 nz         1 ETK      -0.178500
     22 O6           3.4200    -0.5630    -3.6980 o          1 ETK      -0.493300
     23 C8           4.1260    -0.0020    -0.0010 ca         1 ETK       0.106600
     24 C9           3.4350    -0.0010     1.2040 ca         1 ETK       0.123900
     25 F15          4.1130    -0.0020     2.3720 f          1 ETK      -0.089900
     26 N58          5.5260    -0.0010    -0.0050 nu         1 ETK      -0.487600
     27 C28          6.0550     1.1890     0.6720 c3         1 ETK       0.061500
     28 C35          6.1180     2.3540    -0.3170 c3         1 ETK      -0.015400
     29 C34          6.2800     3.6670     0.4500 c3         1 ETK      -0.046400
     30 C33          5.3320     3.6780     1.6510 c3         1 ETK      -0.047900
     31 C32          6.1460     3.6360     2.9450 c3         1 ETK      -0.024400
     32 C31          6.6730     2.2170     3.1700 c3         1 ETK      -0.047900
     33 C30          7.8520     1.9560     2.2300 c3         1 ETK      -0.046400
     34 C29          7.4590     0.8930     1.2020 c3         1 ETK      -0.015400
     35 H1           0.4020    -2.2330     2.2820 h1         1 ETK       0.045200
     36 H2           1.9340    -2.2340     3.1660 h1         1 ETK       0.045200
     37 H3          -0.7740    -1.4720     4.3200 hc         1 ETK       0.025200
     38 H4           0.7590    -1.4720     5.2040 hc         1 ETK       0.025200
     39 H5          -1.8330    -3.5480     3.6520 ha         1 ETK       0.089500
     40 H6          -2.1150    -5.9490     4.1180 ha         1 ETK       0.129500
     41 H8           1.6000    -5.9470     6.2730 ha         1 ETK       0.129500
     42 H9           1.8620    -3.5460     5.7950 ha         1 ETK       0.089500
     43 H10          5.5180     1.7940    -3.0580 hn         1 ETK       0.316800
     44 H11          4.2780     1.6960    -4.1170 hn         1 ETK       0.316800
     45 H12          6.0270    -0.8670     0.0400 hn         1 ETK       0.342800
     46 H13          5.4090     1.4560     1.5000 h1         1 ETK       0.091700
     47 H14          5.2020     2.3860    -0.8950 hc         1 ETK       0.004200
     48 H15          6.9640     2.2180    -0.9800 hc         1 ETK       0.004200
     49 H16          7.3020     3.7560     0.7980 hc         1 ETK       0.031450
     50 H17          6.0420     4.4980    -0.2040 hc         1 ETK       0.031450
     51 H18          4.7350     4.5820     1.6300 hc         1 ETK       0.027200
     52 H19          4.6840     2.8110     1.6050 hc         1 ETK       0.027200
     53 H20          5.5150     3.9220     3.7770 hc         1 ETK       0.024700
     54 H21          6.9820     4.3220     2.8660 hc         1 ETK       0.024700
     55 H22          7.0020     2.1140     4.1970 hc         1 ETK       0.027200
     56 H23          5.8840     1.5040     2.9640 hc         1 ETK       0.027200
     57 H24          8.6990     1.6040     2.8050 hc         1 ETK       0.031450
     58 H25          8.1130     2.8740     1.7170 hc         1 ETK       0.031450
     59 H26          8.1650     0.9100     0.3790 hc         1 ETK       0.004200
     60 H27          7.4680    -0.0830     1.6720 hc         1 ETK       0.004200
     61 H131         4.0000     2.1610    -2.5750 hn         1 ETK       0.316800
@<TRIPOS>BOND
     1     1     2 1   
     2     2     3 ar  
     3     2    16 ar  
     4     3     4 1   
     5     3    24 ar  
     6     4     5 1   
     7     5     6 1   
     8     5    35 1   
     9     5    36 1   
    10     6     7 1   
    11     6    37 1   
    12     6    38 1   
    13     7     8 ar  
    14     7    15 ar  
    15     8     9 ar  
    16     8    39 1   
    17     9    10 ar  
    18     9    40 1   
    19    10    11 1   
    20    10    14 ar  
    21    11    12 1   
    22    11    13 1   
    23    14    15 ar  
    24    14    41 1   
    25    15    42 1   
    26    16    17 1   
    27    16    18 ar  
    28    18    19 1   
    29    18    23 ar  
    30    19    20 2   
    31    19    21 1   
    32    19    22 2   
    33    21    43 1   
    34    21    44 1   
    35    21    61 1   
    36    23    24 ar  
    37    23    26 1   
    38    24    25 1   
    39    26    27 1   
    40    26    45 1   
    41    27    28 1   
    42    27    34 1   
    43    27    46 1   
    44    28    29 1   
    45    28    47 1   
    46    28    48 1   
    47    29    30 1   
    48    29    49 1   
    49    29    50 1   
    50    30    31 1   
    51    30    51 1   
    52    30    52 1   
    53    31    32 1   
    54    31    53 1   
    55    31    54 1   
    56    32    33 1   
    57    32    55 1   
    58    32    56 1   
    59    33    34 1   
    60    33    57 1   
    61    33    58 1   
    62    34    59 1   
    63    34    60 1   
@<TRIPOS>SUBSTRUCTURE
     1 ETK         1 TEMP              0 ****  ****    0 ROOT
