@<TRIPOS>MOLECULE
molecule
   21    20     1     0     0
SMALL
bcc


@<TRIPOS>ATOM
      1 SD           0.0000     0.0000     0.0000 sh         1 ETM      -0.343900
      2 C1           1.8140     0.0000     0.0000 c3         1 ETM      -0.019300
      3 C2           2.3250     0.0000     1.4430 c3         1 ETM       0.123800
      4 N1           3.7930    -0.0000     1.4430 n4         1 ETM      -0.577800
      5 C3           4.2830     1.1990     0.7500 c3         1 ETM       0.092767
      6 C4           4.2830    -1.2000     0.7510 c3         1 ETM       0.092767
      7 C5           4.2830     0.0010     2.8280 c3         1 ETM       0.092767
      8 HSD         -0.4430     0.0000    -1.2520 hs         1 ETM       0.257800
      9 H11          2.1750    -0.8840    -0.5110 h1         1 ETM       0.073700
     10 H12          2.1750     0.8840    -0.5110 h1         1 ETM       0.073700
     11 H21          1.9630    -0.8840     1.9530 hx         1 ETM       0.114700
     12 H22          1.9630     0.8840     1.9530 hx         1 ETM       0.114700
     13 H31          3.6810     2.0530     1.0360 hx         1 ETM       0.100589
     14 H32          4.2140     1.0510    -0.3210 hx         1 ETM       0.100589
     15 H33          5.3160     1.3780     1.0230 hx         1 ETM       0.100589
     16 H41          3.6800    -2.0530     1.0370 hx         1 ETM       0.100589
     17 H42          4.2140    -1.0530    -0.3200 hx         1 ETM       0.100589
     18 H43          5.3160    -1.3790     1.0250 hx         1 ETM       0.100589
     19 H51          3.9220     0.8860     3.3380 hx         1 ETM       0.100589
     20 H52          3.9210    -0.8830     3.3390 hx         1 ETM       0.100589
     21 H53          5.3660     0.0010     2.8280 hx         1 ETM       0.100589
@<TRIPOS>BOND
     1     1     2 1
     2     1     8 1
     3     2     3 1
     4     2     9 1
     5     2    10 1
     6     3     4 1
     7     3    11 1
     8     3    12 1
     9     4     5 1
    10     4     6 1
    11     4     7 1
    12     5    13 1
    13     5    14 1
    14     5    15 1
    15     6    16 1
    16     6    17 1
    17     6    18 1
    18     7    19 1
    19     7    20 1
    20     7    21 1
@<TRIPOS>SUBSTRUCTURE
     1 ETM         1 TEMP              0 ****  ****    0 ROOT
