@<TRIPOS>MOLECULE
ETN
   13    12     1     0     0
SMALL
bcc


@<TRIPOS>ATOM
      1 N            0.0000     0.0000     0.0000 n7         1 ETN      -0.579200
      2 C            1.4690     0.0000     0.0000 c3         1 ETN       0.172100
      3 C1          -0.4220     0.0000     1.4060 c3         1 ETN       0.134800
      4 C2          -1.9500    -0.0010     1.4790 c3         1 ETN       0.002900
      5 HN          -0.3340     0.8300    -0.4490 hn         1 ETN       0.250800
      6 H1           1.8300     0.0020    -1.0210 h1         1 ETN      -0.001967
      7 H2           1.8300     0.8830     0.5120 h1         1 ETN      -0.001967
      8 H3           1.8300    -0.8860     0.5090 h1         1 ETN      -0.001967
      9 H11         -0.0380     0.8850     1.8980 h1         1 ETN       0.005200
     10 H12         -0.0370    -0.8840     1.8990 h1         1 ETN       0.005200
     11 H21         -2.3280     0.9550     1.1390 hc         1 ETN       0.004367
     12 H22         -2.2620    -0.1690     2.5030 hc         1 ETN       0.004367
     13 H23         -2.3410    -0.7890     0.8480 hc         1 ETN       0.004367
@<TRIPOS>BOND
     1     1     2 1   
     2     1     3 1   
     3     1     5 1   
     4     2     6 1   
     5     2     7 1   
     6     2     8 1   
     7     3     4 1   
     8     3     9 1   
     9     3    10 1   
    10     4    11 1   
    11     4    12 1   
    12     4    13 1   
@<TRIPOS>SUBSTRUCTURE
     1 ETN         1 TEMP              0 ****  ****    0 ROOT
