@<TRIPOS>MOLECULE
molecule
   11    10     1     0     0
SMALL
bcc


@<TRIPOS>ATOM
      1 CB           0.0000     0.0000     0.0000 c3         1 ETO      -0.094100
      2 CA           1.5300     0.0000     0.0000 c3         1 ETO       0.151400
      3 O2           2.0140     0.0000     1.3700 os         1 ETO      -0.442900
      4 C            3.3330    -0.0000     1.6160 c          1 ETO       0.647900
      5 O            3.7360    -0.0000     2.7540 o          1 ETO      -0.493000
      6 HB1         -0.3610    -0.8850     0.5110 hc         1 ETO       0.052033
      7 HB2         -0.3610    -0.0000    -1.0210 hc         1 ETO       0.052033
      8 HB3         -0.3610     0.8850     0.5110 hc         1 ETO       0.052033
      9 HA1          1.8910     0.8850    -0.5110 h1         1 ETO       0.035700
     10 HA2          1.8910    -0.8850    -0.5110 h1         1 ETO       0.035700
     11 H            4.0380    -0.0000     0.7920 h5         1 ETO       0.004200
@<TRIPOS>BOND
     1     1     2 1
     2     1     6 1
     3     1     7 1
     4     1     8 1
     5     2     3 1
     6     2     9 1
     7     2    10 1
     8     3     4 1
     9     4     5 2
    10     4    11 1
@<TRIPOS>SUBSTRUCTURE
     1 ETO         1 TEMP              0 ****  ****    0 ROOT
