@<TRIPOS>MOLECULE
ETO
   11    10     1     0     0
SMALL
bcc


@<TRIPOS>ATOM
      1 CB          0.0350    0.0010    0.0190 c3        1 ETO     -0.100100
      2 CA          1.5450    0.0000    0.0080 c3        1 ETO      0.131400
      3 O2          1.9640    0.0020    1.3810 os        1 ETO     -0.429900
      4 C           3.3200   -0.0010    1.5790 c         1 ETO      0.619900
      5 O           3.6460    0.0010    2.7620 o         1 ETO     -0.486000
      6 HB1        -0.3500   -0.9030    0.5490 hc        1 ETO      0.052367
      7 HB2        -0.3400   -0.0000   -1.0320 hc        1 ETO      0.052367
      8 HB3        -0.3500    0.9060    0.5470 hc        1 ETO      0.052367
      9 HA1         1.9480   -0.9160   -0.4980 h1        1 ETO      0.034700
     10 HA2         1.9490    0.9150   -0.5000 h1        1 ETO      0.034700
     11 H           3.9830   -0.0040    0.6950 h5        1 ETO      0.037200
@<TRIPOS>BOND
     1    1    2 1   
     2    1    6 1   
     3    1    7 1   
     4    1    8 1   
     5    2    3 1   
     6    2    9 1   
     7    2   10 1   
     8    3    4 1   
     9    4    5 2   
    10    4   11 1   
@<TRIPOS>SUBSTRUCTURE
     1 ETO         1 TEMP              0 ****  ****    0 ROOT
