@<TRIPOS>MOLECULE
ETQ
   48    49     1     0     0
SMALL
bcc


@<TRIPOS>ATOM
      1 C1           0.0000     0.0000     0.0000 ca         1 ETQ       0.179100
      2 N1          -2.8380     1.1860     1.2290 ns         1 ETQ      -0.179900
      3 O1          -0.6800    -0.0010    -1.1740 oh         1 ETQ      -0.498100
      4 Cl1          2.2930     0.0020     3.8920 cl         1 ETQ      -0.004400
      5 C2           1.3850     0.0000     0.0000 ca         1 ETQ      -0.127300
      6 N2          -4.2280     3.3690     0.0960 n3         1 ETQ      -0.545600
      7 O2          -0.6440     0.0040     3.6070 os         1 ETQ      -0.322900
      8 C3           2.0810     0.0000     1.1950 ca         1 ETQ      -0.056000
      9 O3          -2.7830    -1.0340     1.2370 o          1 ETQ      -0.645100
     10 C4           1.4050     0.0020     2.4010 ca         1 ETQ      -0.085600
     11 C5           0.0180     0.0030     2.4230 ca         1 ETQ       0.169100
     12 C6          -0.9600     1.2780     4.1730 c3         1 ETQ       0.251700
     13 C7          -0.6970     0.0080     1.2170 ca         1 ETQ      -0.200600
     14 C8          -2.1690     0.0150     1.2280 c          1 ETQ       0.610700
     15 C9          -4.3020     1.1930     1.2400 c3         1 ETQ       0.057000
     16 C10         -4.8060     2.6380     1.2390 c3         1 ETQ       0.108500
     17 C11         -6.3380     2.6600     1.0680 c3         1 ETQ      -0.035400
     18 C12         -6.5170     2.9090    -0.4540 c3         1 ETQ      -0.031400
     19 C13         -5.3320     3.8600    -0.7560 c3         1 ETQ       0.152800
     20 C15         -2.6090     5.0560    -0.6340 c3         1 ETQ      -0.005100
     21 C16          2.1360    -0.0040    -1.3060 c3         1 ETQ       0.040900
     22 C17          2.2830     1.4330    -1.8140 c3         1 ETQ       0.006900
     23 HN1         -2.3330     2.0500     1.2240 hn         1 ETQ       0.182500
     24 HO1         -0.9480    -0.8810    -1.3820 ho         1 ETQ       0.418000
     25 H3           3.1650    -0.0000     1.1860 ha         1 ETQ       0.120000
     26 H6          -0.4370     1.3950     5.1140 h1         1 ETQ      -0.006633
     27 H6A         -2.0280     1.3430     4.3430 h1         1 ETQ      -0.006633
     28 H6B         -0.6550     2.0620     3.4900 h1         1 ETQ      -0.006633
     29 H9          -4.6730     0.6810     0.3600 h1         1 ETQ       0.030700
     30 H9A         -4.6600     0.6870     2.1290 h1         1 ETQ       0.030700
     31 H10         -4.5330     3.1290     2.1640 h1         1 ETQ       0.023700
     32 H11         -6.7680     1.7060     1.3510 hc         1 ETQ       0.024700
     33 H11A        -6.7740     3.4700     1.6410 hc         1 ETQ       0.024700
     34 H12         -6.4210     1.9850    -1.0100 hc         1 ETQ       0.025200
     35 H12A        -7.4630     3.3960    -0.6560 hc         1 ETQ       0.025200
     36 H13         -5.5900     4.8770    -0.4880 h1         1 ETQ       0.016700
     37 H13A        -5.0570     3.7960    -1.8020 h1         1 ETQ       0.016700
     38 H14         -2.6850     4.1200     1.3000 h1         1 ETQ       0.005200
     39 H14A        -4.0070     5.2530     0.9870 h1         1 ETQ       0.005200
     40 H15         -3.1580     5.8900    -1.0530 hc         1 ETQ       0.009367
     41 H15A        -1.6300     5.3920    -0.3130 hc         1 ETQ       0.009367
     42 H15B        -2.4960     4.2830    -1.3840 hc         1 ETQ       0.009367
     43 H16          3.1180    -0.4360    -1.1560 hc         1 ETQ       0.018200
     44 H16A         1.5910    -0.5910    -2.0350 hc         1 ETQ       0.018200
     45 H17          2.3990     2.1040    -0.9710 hc         1 ETQ       0.005033
     46 H17A         3.1540     1.5030    -2.4540 hc         1 ETQ       0.005033
     47 H17B         1.3990     1.7100    -2.3760 hc         1 ETQ       0.005033
     48 C14         -3.3830     4.4800     0.5540 c3         1 ETQ       0.150800
@<TRIPOS>BOND
     1     1     3 1   
     2     1     5 ar  
     3     1    13 ar  
     4     2    14 1   
     5     2    15 1   
     6     2    23 1   
     7     3    24 1   
     8     4    10 1   
     9     5     8 ar  
    10     5    21 1   
    11     6    16 1   
    12     6    19 1   
    13     6    48 1   
    14     7    11 1   
    15     7    12 1   
    16     8    10 ar  
    17     8    25 1   
    18     9    14 2   
    19    10    11 ar  
    20    11    13 ar  
    21    12    26 1   
    22    12    27 1   
    23    12    28 1   
    24    13    14 1   
    25    15    16 1   
    26    15    29 1   
    27    15    30 1   
    28    16    17 1   
    29    16    31 1   
    30    17    18 1   
    31    17    32 1   
    32    17    33 1   
    33    18    19 1   
    34    18    34 1   
    35    18    35 1   
    36    19    36 1   
    37    19    37 1   
    38    20    40 1   
    39    20    41 1   
    40    20    42 1   
    41    20    48 1   
    42    21    22 1   
    43    21    43 1   
    44    21    44 1   
    45    22    45 1   
    46    22    46 1   
    47    22    47 1   
    48    38    48 1   
    49    39    48 1   
@<TRIPOS>SUBSTRUCTURE
     1 ETQ         1 TEMP              0 ****  ****    0 ROOT
