@<TRIPOS>MOLECULE
molecule
   57    57     1     0     0
SMALL
bcc


@<TRIPOS>ATOM
      1 C1           0.0000     0.0000     0.0000 c3         1 ETR      -0.022800
      2 C2           1.5350     0.0000     0.0000 c3         1 ETR      -0.076400
      3 C3           2.1630     0.0000     1.3890 c3         1 ETR      -0.078400
      4 C4           1.1890     0.5720     2.3990 c3         1 ETR      -0.049200
      5 C5          -0.0740    -0.2840     2.3760 c2         1 ETR      -0.131400
      6 C6          -0.6510    -0.6910     1.2020 ce         1 ETR      -0.080200
      7 C7          -1.9680    -1.2770     1.4720 ce         1 ETR      -0.116000
      8 C8          -2.8400    -0.3660     1.9820 cf         1 ETR      -0.161000
      9 C9          -4.2140    -0.8600     2.0120 cf         1 ETR      -0.102200
     10 C10         -4.9690     0.0830     2.6190 ce         1 ETR      -0.128000
     11 C11         -6.3430    -0.2980     2.5460 ce         1 ETR      -0.112000
     12 C12         -7.0540     0.7300     3.2770 cf         1 ETR      -0.190000
     13 C13         -8.4500     0.7440     3.4450 cf         1 ETR       0.024800
     14 C14         -8.9650     1.5390     4.0930 ce         1 ETR      -0.281200
     15 C15        -10.4070     1.4010     4.1880 c          1 ETR       0.622300
     16 O          -11.0240     0.3910     3.4740 o          1 ETR      -0.736100
     17 N          -10.8850     2.0730     4.9200 ns         1 ETR      -0.471900
     18 C16          0.0370    -1.2320    -0.8750 c3         1 ETR      -0.070600
     19 C17         -0.5050     1.1940    -0.8070 c3         1 ETR      -0.070600
     20 C18         -0.4940    -0.5710     3.8040 c3         1 ETR      -0.051900
     21 C19         -4.3710    -2.2660     1.4440 c3         1 ETR      -0.029900
     22 C20         -9.1340    -0.2540     2.6740 c3         1 ETR      -0.067900
     23 C21        -11.8880     1.4870     5.9890 c3         1 ETR       0.107000
     24 C22        -13.1560     1.8410     5.2850 c3         1 ETR      -0.121100
     25 H21          1.8770     0.8810    -0.5300 hc         1 ETR       0.044200
     26 H22          1.8770    -0.8810    -0.5300 hc         1 ETR       0.044200
     27 H31          3.0610     0.6050     1.3750 hc         1 ETR       0.039700
     28 H32          2.4120    -1.0160     1.6690 hc         1 ETR       0.039700
     29 H41          1.6310     0.5440     3.3880 hc         1 ETR       0.046200
     30 H42          0.9430     1.5920     2.1310 hc         1 ETR       0.046200
     31 H7          -2.2820    -2.2520     1.1200 ha         1 ETR       0.149000
     32 H8          -2.5680     0.6700     2.1460 ha         1 ETR       0.147000
     33 H10         -4.5840     1.0250     2.9890 ha         1 ETR       0.159000
     34 H11         -6.7890    -1.1540     2.0540 ha         1 ETR       0.173000
     35 H12         -6.4850     1.5400     3.7160 ha         1 ETR       0.119000
     36 H14         -8.4080     2.3140     4.6070 ha         1 ETR       0.122000
     37 HN         -10.6470     3.0450     4.9380 hn         1 ETR       0.327500
     38 H161         0.5200    -2.0410    -0.3400 hc         1 ETR       0.033033
     39 H162         0.5910    -1.0160    -1.7800 hc         1 ETR       0.033033
     40 H163        -0.9750    -1.5230    -1.1320 hc         1 ETR       0.033033
     41 H171        -0.4550     2.0880    -0.1980 hc         1 ETR       0.033033
     42 H172        -1.5310     1.0180    -1.1080 hc         1 ETR       0.033033
     43 H173         0.1130     1.3220    -1.6880 hc         1 ETR       0.033033
     44 H181        -1.0660     0.2650     4.1860 hc         1 ETR       0.041033
     45 H182         0.3870    -0.7160     4.4170 hc         1 ETR       0.041033
     46 H183        -1.1030    -1.4670     3.8280 hc         1 ETR       0.041033
     47 H191        -5.4130    -2.5580     1.4870 hc         1 ETR       0.047700
     48 H192        -3.7770    -2.9590     2.0270 hc         1 ETR       0.047700
     49 H193        -4.0350    -2.2790     0.4140 hc         1 ETR       0.047700
     50 H201        -8.4270    -0.7580     2.0260 hc         1 ETR       0.057367
     51 H202        -9.9020     0.2170     2.0730 hc         1 ETR       0.057367
     52 H203        -9.5900    -0.9760     3.3420 hc         1 ETR       0.057367
     53 H211       -11.8020     2.0000     6.9400 h1         1 ETR       0.073200
     54 H212       -11.7760     0.4150     6.0960 h1         1 ETR       0.073200
     55 H221       -13.0680     2.8330     4.8580 hc         1 ETR       0.050700
     56 H222       -13.9780     1.8240     5.9900 hc         1 ETR       0.050700
     57 H223       -13.3430     1.1240     4.4950 hc         1 ETR       0.050700
@<TRIPOS>BOND
     1     1     2 1
     2     1     6 1
     3     1    18 1
     4     1    19 1
     5     2     3 1
     6     2    25 1
     7     2    26 1
     8     3     4 1
     9     3    27 1
    10     3    28 1
    11     4     5 1
    12     4    29 1
    13     4    30 1
    14     5     6 2
    15     5    20 1
    16     6     7 1
    17     7     8 2
    18     7    31 1
    19     8     9 1
    20     8    32 1
    21     9    10 2
    22     9    21 1
    23    10    11 1
    24    10    33 1
    25    11    12 2
    26    11    34 1
    27    12    13 1
    28    12    35 1
    29    13    14 2
    30    13    22 1
    31    14    15 1
    32    14    36 1
    33    15    16 2
    34    15    17 1
    35    17    23 1
    36    17    37 1
    37    18    38 1
    38    18    39 1
    39    18    40 1
    40    19    41 1
    41    19    42 1
    42    19    43 1
    43    20    44 1
    44    20    45 1
    45    20    46 1
    46    21    47 1
    47    21    48 1
    48    21    49 1
    49    22    50 1
    50    22    51 1
    51    22    52 1
    52    23    24 1
    53    23    53 1
    54    23    54 1
    55    24    55 1
    56    24    56 1
    57    24    57 1
@<TRIPOS>SUBSTRUCTURE
     1 ETR         1 TEMP              0 ****  ****    0 ROOT
