@<TRIPOS>MOLECULE
ETR
   57    62     1     0     0
SMALL
bcc


@<TRIPOS>ATOM
      1 C1           0.0000     0.0000     0.0000 c3         1 ETR      -0.041000
      2 C2           1.5350     0.0000     0.0000 c3         1 ETR      -0.128000
      3 C3           2.1630     0.0000     1.3890 c3         1 ETR      -0.103000
      4 C4           1.1890     0.5720     2.3990 c3         1 ETR      -0.062000
      5 C5          -0.0740    -0.2840     2.3760 c2         1 ETR      -0.143000
      6 C6          -0.6510    -0.6910     1.2020 c2         1 ETR      -0.008000
      7 C7          -1.9680    -1.2770     1.4720 c2         1 ETR      -0.161000
      8 C8          -2.8400    -0.3660     1.9820 c2         1 ETR       0.091000
      9 C9          -4.2140    -0.8600     2.0120 c3         1 ETR      -0.127000
     10 C10         -4.9690     0.0830     2.6190 c3         1 ETR      -0.340000
     11 C11         -6.3430    -0.2980     2.5460 c3         1 ETR      -0.186000
     12 C12         -7.0540     0.7300     3.2770 c2         1 ETR      -0.199000
     13 C13         -8.4500     0.7440     3.4450 c3         1 ETR       0.272000
     14 C14         -8.9650     1.5390     4.0930 c2         1 ETR      -0.632000
     15 C15        -10.4070     1.4010     4.1880 c3         1 ETR       0.081000
     16 O          -11.0240     0.3910     3.4740 o          1 ETR      -0.582000
     17 N          -10.8850     2.0730     4.9200 n7         1 ETR       0.271000
     18 C16          0.0370    -1.2320    -0.8750 c3         1 ETR      -0.105000
     19 C17         -0.5050     1.1940    -0.8070 c3         1 ETR      -0.105000
     20 C18         -0.4940    -0.5710     3.8040 c3         1 ETR      -0.086000
     21 C19         -4.3710    -2.2660     1.4440 c3         1 ETR      -0.080000
     22 C20         -9.1340    -0.2540     2.6740 c3         1 ETR      -0.241000
     23 C21        -11.8880     1.4870     5.9890 c3         1 ETR      -0.073000
     24 C22        -13.1560     1.8410     5.2850 c3         1 ETR      -0.160000
     25 H21          1.8770    -0.8810    -0.5300 hc         1 ETR       0.069500
     26 H22          1.8770     0.8810    -0.5300 hc         1 ETR       0.069500
     27 H31          2.4120    -1.0160     1.6690 hc         1 ETR       0.054500
     28 H32          3.0610     0.6050     1.3750 hc         1 ETR       0.054500
     29 H41          0.9430     1.5920     2.1310 hc         1 ETR       0.068000
     30 H42          1.6310     0.5440     3.3880 hc         1 ETR       0.068000
     31 H7          -1.1580    -1.4410     2.1720 ha         1 ETR       0.126000
     32 H8          -3.2510    -0.7440     2.9100 DU         1 ETR       0.095000
     33 H10         -5.5170    -0.2790     3.4810 DU         1 ETR       0.244000
     34 H11         -5.5470    -0.8750     2.0930 DU         1 ETR       0.244000
     35 H12         -7.6060     0.0010     3.8580 DU         1 ETR       0.107000
     36 H14         -9.6670     2.0460     3.4410 DU         1 ETR       0.269000
     37 HN         -10.6470     3.0450     4.9370 hn         1 ETR       0.082000
     38 H161         0.4830    -2.0520    -0.3250 hc         1 ETR       0.047333
     39 H162        -0.9720    -1.4990    -1.1650 hc         1 ETR       0.047333
     40 H163         0.6260    -1.0280    -1.7610 hc         1 ETR       0.047333
     41 H171        -1.5410     1.0330    -1.0800 hc         1 ETR       0.047333
     42 H172         0.0920     1.3010    -1.7050 hc         1 ETR       0.047333
     43 H173        -0.4240     2.0940    -0.2100 hc         1 ETR       0.047333
     44 H181        -0.8890    -1.5770     3.8690 hc         1 ETR       0.061333
     45 H182         0.3640    -0.4770     4.4580 hc         1 ETR       0.061333
     46 H183        -1.2570     0.1370     4.1050 hc         1 ETR       0.061333
     47 H191        -3.7110    -2.9440     1.9700 hc         1 ETR       0.070000
     48 H192        -4.1180    -2.2600     0.3900 hc         1 ETR       0.070000
     49 H193        -5.3970    -2.5930     1.5670 hc         1 ETR       0.070000
     50 H201        -9.8660     0.2230     2.0340 hc         1 ETR       0.094333
     51 H202        -9.6350    -0.9450     3.3420 hc         1 ETR       0.094333
     52 H203        -8.4190    -0.7940     2.0660 hc         1 ETR       0.094333
     53 H211       -11.8020     2.0000     6.9400 h1         1 ETR       0.081000
     54 H212       -11.7760     0.4150     6.0960 h1         1 ETR       0.081000
     55 H221       -13.3550     1.1110     4.5090 hc         1 ETR       0.058667
     56 H222       -13.9750     1.8460     5.9950 hc         1 ETR       0.058667
     57 H223       -13.0600     2.8240     4.8390 hc         1 ETR       0.058667
@<TRIPOS>BOND
     1     1     2 1   
     2     1     6 1   
     3     1    18 1   
     4     1    19 1   
     5     2     3 1   
     6     2    25 1   
     7     2    26 1   
     8     3     4 1   
     9     3    27 1   
    10     3    28 1   
    11     4     5 1   
    12     4    29 1   
    13     4    30 1   
    14     5     6 1   
    15     5    20 1   
    16     6     7 1   
    17     7     8 1   
    18     7    31 1   
    19     8     9 1   
    20     8    32 1   
    21     9    10 1   
    22     9    21 1   
    23     9    32 1   
    24    10    11 1   
    25    10    33 1   
    26    10    34 1   
    27    11    12 1   
    28    11    33 1   
    29    11    34 1   
    30    12    13 1   
    31    12    35 1   
    32    13    14 1   
    33    13    22 1   
    34    13    35 1   
    35    14    15 1   
    36    14    36 1   
    37    15    16 1   
    38    15    17 1   
    39    15    36 1   
    40    17    23 1   
    41    17    37 1   
    42    18    38 1   
    43    18    39 1   
    44    18    40 1   
    45    19    41 1   
    46    19    42 1   
    47    19    43 1   
    48    20    44 1   
    49    20    45 1   
    50    20    46 1   
    51    21    47 1   
    52    21    48 1   
    53    21    49 1   
    54    22    50 1   
    55    22    51 1   
    56    22    52 1   
    57    23    24 1   
    58    23    53 1   
    59    23    54 1   
    60    24    55 1   
    61    24    56 1   
    62    24    57 1   
@<TRIPOS>SUBSTRUCTURE
     1 ETR         1 TEMP              0 ****  ****    0 ROOT
