@<TRIPOS>MOLECULE
ETS
   36    37     1     0     0
SMALL
bcc


@<TRIPOS>ATOM
      1 S1           0.0000     0.0000     0.0000 ss         1 ETS      -0.040800
      2 C2           1.7570     0.0000     0.0000 cc         1 ETS      -0.164600
      3 C3           2.2010     0.0000     1.2510 cd         1 ETS       0.065000
      4 C4           1.2230    -0.0020     2.2480 cd         1 ETS      -0.058300
      5 C5           1.5670    -0.0240     3.7260 c3         1 ETS       0.164800
      6 C6           0.4420     0.5350     4.5830 c3         1 ETS      -0.041400
      7 C7          -0.8250    -0.3150     4.4180 c3         1 ETS       0.004100
      8 S8          -1.4930     0.0250     2.7570 sy         1 ETS       0.885300
      9 C9          -0.0310     0.0050     1.7570 cc         1 ETS       0.075400
     10 S10          2.7730     0.0020    -1.4400 sy         1 ETS       0.972200
     11 O11          1.9830     0.5460    -2.4880 o          1 ETS      -0.482800
     12 O12          4.0260     0.5450    -1.0460 o          1 ETS      -0.482800
     13 N13          3.0550    -1.5810    -1.8410 nz         1 ETS      -0.127500
     14 N14          2.7780     0.7780     3.9460 n7         1 ETS      -0.595200
     15 C15         -0.4750    -1.7990     4.5450 c3         1 ETS       0.032900
     16 O16         -1.9710     1.3600     2.6690 o          1 ETS      -0.543300
     17 O17         -2.2660    -1.0710     2.2890 o          1 ETS      -0.543300
     18 C18          3.4950     0.3300     5.1480 c3         1 ETS       0.141800
     19 C19          4.6760     1.2660     5.4150 c3         1 ETS       0.006900
     20 H3           3.2580     0.0000     1.4850 ha         1 ETS       0.147000
     21 H5           1.7580    -1.0470     4.0250 h1         1 ETS       0.060700
     22 H61          0.7460     0.5250     5.6230 hc         1 ETS       0.047700
     23 H62          0.2310     1.5530     4.2760 hc         1 ETS       0.047700
     24 H7          -1.5530    -0.0370     5.1710 h1         1 ETS       0.097700
     25 HN31         3.5530    -2.0300    -1.0980 hn         1 ETS       0.314467
     26 HN32         2.1830    -2.0480    -1.9880 hn         1 ETS       0.314467
     27 HN4          2.5270     1.7410     4.0470 hn         1 ETS       0.275800
     28 H151        -1.3760    -2.3660     4.7490 hc         1 ETS       0.017700
     29 H152         0.2280    -1.9360     5.3570 hc         1 ETS       0.017700
     30 H153        -0.0310    -2.1460     3.6200 hc         1 ETS       0.017700
     31 H181         2.8220     0.3460     5.9970 h1         1 ETS       0.010200
     32 H182         3.8610    -0.6780     4.9950 h1         1 ETS       0.010200
     33 H191         5.3090     1.3090     4.5370 hc         1 ETS       0.012700
     34 H192         4.3060     2.2590     5.6430 hc         1 ETS       0.012700
     35 H193         5.2490     0.8930     6.2560 hc         1 ETS       0.012700
     36 H133         3.5990    -1.6200    -2.6800 hn         1 ETS       0.314467
@<TRIPOS>BOND
     1     1     2 1   
     2     1     9 1   
     3     2     3 2   
     4     2    10 1   
     5     3     4 1   
     6     3    20 1   
     7     4     5 1   
     8     4     9 2   
     9     5     6 1   
    10     5    14 1   
    11     5    21 1   
    12     6     7 1   
    13     6    22 1   
    14     6    23 1   
    15     7     8 1   
    16     7    15 1   
    17     7    24 1   
    18     8     9 1   
    19     8    16 2   
    20     8    17 2   
    21    10    11 2   
    22    10    12 2   
    23    10    13 1   
    24    13    25 1   
    25    13    26 1   
    26    13    36 1   
    27    14    18 1   
    28    14    27 1   
    29    15    28 1   
    30    15    29 1   
    31    15    30 1   
    32    18    19 1   
    33    18    31 1   
    34    18    32 1   
    35    19    33 1   
    36    19    34 1   
    37    19    35 1   
@<TRIPOS>SUBSTRUCTURE
     1 ETS         1 TEMP              0 ****  ****    0 ROOT
