@<TRIPOS>MOLECULE
ETT
   57    53     1     0     0
SMALL
bcc


@<TRIPOS>ATOM
      1 C01        -2.6570   -0.4490    2.2440 c2        1 ETT     -0.117000
      2 C02        -0.3040   -0.5390    2.8600 c1        1 ETT     -0.151000
      3 C03         3.6450   -1.9600    3.0690 c1        1 ETT     -0.174000
      4 OAG         9.4750   -5.3950    2.1520 oh        1 ETT     -0.343000
      5 OAH         3.8080   -3.6680    5.1680 oh        1 ETT     -0.393000
      6 CAI         3.1820   -1.1970    1.9860 c2        1 ETT     -0.117000
      7 OAI         7.8600   -4.7050    5.2460 o         1 ETT     -0.402000
      8 CAJ         1.8930   -0.8110    1.8400 c2        1 ETT     -0.101000
      9 CAK        10.5410   -5.6590    4.2530 c3        1 ETT     -0.006000
     10 CAL         9.0370   -2.5330    1.3860 c1        1 ETT      0.024000
     11 CAM        -1.4740    0.0360    2.9330 c2        1 ETT     -0.099000
     12 NAM         5.8560   -3.4990    7.0960 n4        1 ETT     -0.072000
     13 CAN         8.9070   -1.3320    0.9330 c2        1 ETT     -0.499000
     14 OAN         6.6670   -0.6490    4.7590 os        1 ETT     -0.142000
     15 CAO         2.7640   -5.0020    8.7620 c1        1 ETT      0.286000
     16 CAQ         4.7710   -1.8400    3.8510 c2        1 ETT     -0.315000
     17 CAR         5.6810   -0.7940    3.8540 c2        1 ETT      0.152000
     18 CAS         9.4820   -4.8740    3.4670 c3        1 ETT     -0.072000
     19 CAT         4.9870   -2.9820    4.8080 c3        1 ETT      0.103000
     20 CAU         8.1150   -5.0460    4.0830 c2        1 ETT      0.213000
     21 CAV         5.6120   -2.4040    6.1090 c3        1 ETT     -0.142000
     22 CAW         6.9040   -1.6770    5.7250 c3        1 ETT     -0.066000
     23 CAX         0.8730   -1.1040    2.8230 c2        1 ETT     -0.074000
     24 CBD        -3.8480    0.1470    2.3320 c2        1 ETT     -0.221000
     25 H02         1.1450   -1.8710    3.5760 ha        1 ETT      0.144000
     26 H03         4.6990    4.2690    3.9170 ha        1 ETT      0.000000
     27 H03A        4.8160    3.6950    3.5770 ha        1 ETT      0.000000
     28 HAB         4.1990   -6.3010    7.9520 ha        1 ETT      0.194000
     29 HABA        3.2740   -5.2160    6.7350 ha        1 ETT      0.194000
     30 HABB        4.9530   -3.9740    7.2840 hn        1 ETT      0.258333
     31 HOAE       11.7870   -5.6880    2.7820 ho        1 ETT      0.219000
     32 H9          9.2530   -4.6560    1.5560 ho        1 ETT      0.253000
     33 HOAH        3.1170   -3.4170    4.5160 ho        1 ETT      0.284000
     34 HAI         3.9230   -0.9350    1.2000 ha        1 ETT      0.156000
     35 H12         6.2460   -3.1250    7.9580 hn        1 ETT      0.258333
     36 HAJ         1.5900   -0.2170    0.9630 ha        1 ETT      0.132000
     37 HAK        10.5880   -5.2870    5.3100 h1        1 ETT      0.094000
     38 HAKA       10.2950   -6.7540    4.2330 h1        1 ETT      0.094000
     39 HAL         9.6460   -0.7220    0.3950 ha        1 ETT      0.240500
     40 HAM        -1.6010    0.9490    3.5460 ha        1 ETT      0.137000
     41 HNAM        4.8800   -1.6820    6.5770 hx        1 ETT      0.161000
     42 HAN         7.9430   -0.7690    1.0700 ha        1 ETT      0.240500
     43 H20         9.7420   -3.7740    3.4550 h1        1 ETT      0.142000
     44 HAT         7.6540   -2.3930    5.2900 h1        1 ETT      0.118500
     45 H22         7.3490   -1.1280    6.5980 h1        1 ETT      0.118500
     46 HAV         5.7020   -3.7390    4.3670 h1        1 ETT      0.088000
     47 HAW         7.3380   -5.4900    3.4200 h4        1 ETT      0.121000
     48 HBD        -4.0200    1.0500    2.9330 ha        1 ETT      0.111500
     49 HBDA       -4.7300   -0.2340    1.8010 ha        1 ETT      0.111500
     50 HBDB       -2.5210   -1.3540    1.6270 ha        1 ETT      0.125000
     51 CAP         5.7030    0.4020    2.8180 c2        1 ETT      0.401000
     52 CAB         3.4990   -5.4750    7.7830 c2        1 ETT     -0.520000
     53 OAC         2.1550   -4.5100    9.6560 o         1 ETT     -0.135000
     54 HAM2        6.5070   -4.1860    6.6920 hn        1 ETT      0.258333
     55 OAE        11.8240   -5.4370    3.7160 oh        1 ETT     -0.318000
     56 OAD         5.2360    1.4740    3.2310 o         1 ETT     -0.477500
     57 OAF         6.1950    0.0860    1.7110 o         1 ETT     -0.477500
@<TRIPOS>BOND
     1    1   11 1   
     2    1   24 1   
     3    1   50 1   
     4    2   11 1   
     5    2   23 1   
     6    3    6 1   
     7    3   16 1   
     8    4   18 1   
     9    4   32 1   
    10    5   19 1   
    11    5   33 1   
    12    6    8 1   
    13    6   34 1   
    14    7   20 1   
    15    8   23 1   
    16    8   36 1   
    17    9   18 1   
    18    9   37 1   
    19    9   38 1   
    20    9   55 1   
    21   10   13 1   
    22   11   40 1   
    23   12   21 1   
    24   12   30 1   
    25   12   35 1   
    26   12   54 1   
    27   13   39 1   
    28   13   42 1   
    29   14   17 1   
    30   14   22 1   
    31   15   52 1   
    32   15   53 1   
    33   16   17 1   
    34   16   19 1   
    35   17   51 1   
    36   18   20 1   
    37   18   43 1   
    38   19   21 1   
    39   19   46 1   
    40   20   47 1   
    41   21   22 1   
    42   21   41 1   
    43   22   44 1   
    44   22   45 1   
    45   23   25 1   
    46   24   48 1   
    47   24   49 1   
    48   26   27 1   
    49   28   52 1   
    50   29   52 1   
    51   31   55 1   
    52   51   56 1   
    53   51   57 1   
@<TRIPOS>SUBSTRUCTURE
     1 ETT         1 TEMP              0 ****  ****    0 ROOT
