@<TRIPOS>MOLECULE
molecule
   56    57     1     0     0
SMALL
bcc


@<TRIPOS>ATOM
      1 C01          0.0000     0.0000     0.0000 ca         1 ETT      -0.105300
      2 C02         -0.0170    -0.0010     2.3950 ca         1 ETT      -0.133500
      3 C03          4.1910    -0.0010     4.9930 c3         1 ETT       0.011000
      4 OAD          7.2090     1.2900     5.1300 o          1 ETT      -0.811800
      5 OAF          6.7770     0.6740     3.0410 o          1 ETT      -0.811800
      6 OAG          8.6380    -4.3070     2.6780 oh         1 ETT      -0.613800
      7 OAH          3.8000    -2.3440     6.6140 oh         1 ETT      -0.576800
      8 CAI          3.4410    -0.0010     3.6860 c2         1 ETT      -0.084200
      9 OAI          8.5600    -3.9540     6.3230 oh         1 ETT      -0.573800
     10 CAJ          2.1150    -0.0010     3.6830 ce         1 ETT      -0.206200
     11 CAK         10.3240    -4.9560     4.2820 c3         1 ETT       0.102400
     12 CAL          1.3830     0.0000     0.0000 ca         1 ETT      -0.141500
     13 CAM         -0.6980    -0.0010     1.1950 ca         1 ETT      -0.141500
     14 NAM          5.3820    -4.7920     5.9750 ns         1 ETT      -0.588900
     15 CAN          2.0770     0.0000     1.1930 ca         1 ETT      -0.133500
     16 OAN          7.3370    -1.9530     4.6540 os         1 ETT      -0.295900
     17 CAO          4.8660    -5.2230     7.1430 c          1 ETT       0.644100
     18 CAQ          5.1480    -1.1650     5.0230 c2         1 ETT      -0.301400
     19 CAR          6.4040    -0.9680     4.6530 ce         1 ETT       0.108900
     20 CAS          9.1500    -4.0220     3.9810 c3         1 ETT       0.130100
     21 CAT          4.6420    -2.5090     5.4720 c3         1 ETT       0.200300
     22 CAU          8.0480    -4.2370     5.0200 c3         1 ETT       0.164100
     23 CAV          5.8310    -3.4040     5.8410 c3         1 ETT       0.068700
     24 CAW          6.8730    -3.3040     4.7180 c3         1 ETT       0.141100
     25 CAX          1.3780    -0.0000     2.4020 ca         1 ETT       0.003200
     26 CBD         -0.7500     0.0070    -1.3060 c3         1 ETT      -0.042800
     27 H02         -0.6510     0.0200     3.2730 ha         1 ETT       0.139000
     28 H03          3.4880    -0.0900     5.8120 hc         1 ETT       0.074200
     29 H03A         4.7440     0.9250     5.0920 hc         1 ETT       0.074200
     30 HAB          3.6420    -6.8570     6.5400 hc         1 ETT       0.051700
     31 HABA         3.9930    -6.8020     8.2730 hc         1 ETT       0.051700
     32 HABB         5.2440    -7.3180     7.1330 hc         1 ETT       0.051700
     33 HOAE        12.1370    -5.2220     3.5970 ho         1 ETT       0.396000
     34 H9           9.1950    -3.9110     2.0280 ho         1 ETT       0.421000
     35 HOAH         2.9240    -2.6210     6.4010 ho         1 ETT       0.383000
     36 HAI          3.9850     0.0000     2.7490 ha         1 ETT       0.146000
     37 H12          8.8030    -4.7600     6.7480 ho         1 ETT       0.389000
     38 HAJ          1.5710    -0.0020     4.6200 ha         1 ETT       0.121000
     39 HAK         10.6550    -4.8030     5.3020 h1         1 ETT       0.022700
     40 HAKA        10.0090    -5.9850     4.1560 h1         1 ETT       0.022700
     41 HAL          1.9240    -0.0030    -0.9390 ha         1 ETT       0.119000
     42 HAM         -1.7740     0.0060     1.3130 ha         1 ETT       0.119000
     43 HNAM         5.4110    -5.4050     5.1840 hn         1 ETT       0.300500
     44 HAN          3.1040     0.1020     0.8630 ha         1 ETT       0.139000
     45 H20          9.4870    -2.9940     4.0200 h1         1 ETT       0.095700
     46 HAT          4.0820    -2.9690     4.6680 h1         1 ETT       0.018700
     47 H22          7.7110    -5.2660     4.9800 h1         1 ETT       0.030700
     48 HAV          6.2670    -3.0640     6.7720 h1         1 ETT       0.126700
     49 HAW          6.4170    -3.5760     3.7740 h1         1 ETT       0.060700
     50 HBD         -0.0750    -0.2560    -2.1120 hc         1 ETT       0.033367
     51 HBDA        -1.5580    -0.7140    -1.2630 hc         1 ETT       0.033367
     52 HBDB        -1.1570     0.9950    -1.4840 hc         1 ETT       0.033367
     53 CAP          6.8070     0.3810     4.2200 c          1 ETT       0.896800
     54 CAB          4.4040    -6.6510     7.2820 c3         1 ETT      -0.175100
     55 OAC          4.7740    -4.4610     8.0830 o          1 ETT      -0.579100
     56 OAE         11.3990    -4.6750     3.3850 oh         1 ETT      -0.609800
@<TRIPOS>BOND
     1     1    13 ar
     2     1    12 ar
     3     2    25 ar
     4     3    18 1
     5    55    17 2
     6     5    53 1
     7     7    21 1
     8     8     3 1
     9     9    22 1
    10    10     8 2
    11    11    56 1
    12    11    20 1
    13    12    15 ar
    14    13     2 ar
    15    15    25 ar
    16    16    24 1
    17    17    54 1
    18    17    14 1
    19    53     4 1
    20    53    19 1
    21    18    21 1
    22    19    16 1
    23    19    18 2
    24    20     6 1
    25    21    23 1
    26    22    20 1
    27    22    24 1
    28    23    14 1
    29    23    24 1
    30    25    10 1
    31    26     1 1
    32     2    27 1
    33     3    28 1
    34     3    29 1
    35    54    30 1
    36    54    31 1
    37    54    32 1
    38    56    33 1
    39     6    34 1
    40     7    35 1
    41     8    36 1
    42     9    37 1
    43    10    38 1
    44    11    39 1
    45    11    40 1
    46    12    41 1
    47    13    42 1
    48    14    43 1
    49    15    44 1
    50    20    45 1
    51    21    46 1
    52    22    47 1
    53    23    48 1
    54    24    49 1
    55    26    50 1
    56    26    51 1
    57    26    52 1
@<TRIPOS>SUBSTRUCTURE
     1 ETT         1 TEMP              0 ****  ****    0 ROOT
