@<TRIPOS>MOLECULE
molecule
   64    68     1     0     0
SMALL
bcc


@<TRIPOS>ATOM
      1 C            0.0000     0.0000     0.0000 c3         1 ETU      -0.083100
      2 N            3.0490    -1.9590    -0.2690 n          1 ETU      -0.481800
      3 O            1.4830    -1.5510    -1.7510 o          1 ETU      -0.653500
      4 Cl           1.0670    -4.1300    15.1160 cl         1 ETU      -0.023300
      5 C1           1.5300     0.0000     0.0000 c3         1 ETU       0.099500
      6 N1           2.0170     0.0000     1.3860 n3         1 ETU      -0.723600
      7 O1           3.1510     0.8660     3.9360 os         1 ETU      -0.337900
      8 C2           2.0290    -1.2210    -0.7190 c          1 ETU       0.708500
      9 N2           3.5870    -0.1590    12.1260 nh         1 ETU      -0.813300
     10 C3           3.7490    -1.6700     0.9790 c3         1 ETU       0.112000
     11 N3           0.3550    -0.6360    16.4690 nc         1 ETU      -0.057000
     12 C4           3.4710    -0.2290     1.4140 c3         1 ETU       0.130800
     13 N4           0.2430    -1.9190    16.4790 nc         1 ETU      -0.344700
     14 C5           1.6700     1.2550     2.0660 c3         1 ETU       0.159800
     15 N5           1.5080    -1.4260    14.8130 na         1 ETU       0.118300
     16 C6           1.7810     1.0620     3.5800 c3         1 ETU       0.138400
     17 N6           2.3370    -1.3610    13.6920 nd         1 ETU      -0.579800
     18 C7           3.4250     0.6770     5.2540 ca         1 ETU       0.141100
     19 C8           4.7340     0.4810     5.6700 ca         1 ETU      -0.187000
     20 C9           5.0110     0.2900     7.0090 ca         1 ETU      -0.085000
     21 C10          3.9840     0.2950     7.9360 ca         1 ETU      -0.123300
     22 C11          2.6790     0.4910     7.5240 ca         1 ETU      -0.085000
     23 C12          2.3980     0.6880     6.1860 ca         1 ETU      -0.187000
     24 C13          4.2890     0.0870     9.3970 c3         1 ETU      -0.018400
     25 C14          3.8270     1.3140    10.1960 c3         1 ETU      -0.094400
     26 C15          4.1700     1.1120    11.6740 c3         1 ETU       0.234300
     27 C16          3.8980    -1.3840    11.3770 c3         1 ETU       0.234300
     28 C17          3.5580    -1.1600     9.9010 c3         1 ETU      -0.094400
     29 C18          2.7620    -0.2020    13.2440 cc         1 ETU       0.684200
     30 C19          2.3900     0.9980    13.8820 cc         1 ETU      -0.285300
     31 C20          1.5840     0.9680    14.9750 cd         1 ETU      -0.002000
     32 C21          1.1280    -0.2740    15.4580 cd         1 ETU      -0.144300
     33 C22          0.9270    -2.4400    15.4910 cd         1 ETU       0.394800
     34 C23          3.4790    -3.1150    -1.0610 c3         1 ETU       0.101300
     35 H           -0.3610     1.0030     0.1940 hc         1 ETU       0.051033
     36 HA          -0.3610    -0.3340    -0.9650 hc         1 ETU       0.051033
     37 HB          -0.3610    -0.6690     0.7720 hc         1 ETU       0.051033
     38 H1           1.8940     0.8860    -0.5060 h1         1 ETU       0.050700
     39 H3           4.8140    -1.7990     0.8290 h1         1 ETU       0.048700
     40 H3A          3.4040    -2.3490     1.7490 h1         1 ETU       0.048700
     41 H4           3.8430    -0.0760     2.4190 h1         1 ETU       0.061200
     42 H4A          3.9590     0.4560     0.7310 h1         1 ETU       0.061200
     43 H5           2.3500     2.0370     1.7510 h1         1 ETU       0.052200
     44 H5A          0.6550     1.5350     1.8120 h1         1 ETU       0.052200
     45 H6           1.3990     1.9410     4.0850 h1         1 ETU       0.047200
     46 H6A          1.2030     0.1950     3.8770 h1         1 ETU       0.047200
     47 H8           5.5390     0.4770     4.9440 ha         1 ETU       0.140000
     48 H9           6.0330     0.1360     7.3350 ha         1 ETU       0.134500
     49 H11          1.8770     0.4970     8.2520 ha         1 ETU       0.134500
     50 H12          1.3750     0.8410     5.8640 ha         1 ETU       0.140000
     51 H13          5.3560    -0.0460     9.5310 hc         1 ETU       0.056700
     52 H14          4.3340     2.1970     9.8250 hc         1 ETU       0.057950
     53 H14A         2.7560     1.4330    10.0870 hc         1 ETU       0.057950
     54 H15          5.2460     1.0810    11.7960 h1         1 ETU       0.059700
     55 H15A         3.7570     1.9270    12.2560 h1         1 ETU       0.059700
     56 H16          3.3080    -2.2050    11.7650 h1         1 ETU       0.059700
     57 H16A         4.9530    -1.6100    11.4760 h1         1 ETU       0.059700
     58 H17          2.4900    -1.0200     9.7940 hc         1 ETU       0.057950
     59 H17A         3.8750    -2.0210     9.3240 hc         1 ETU       0.057950
     60 H19          2.7510     1.9460    13.5020 ha         1 ETU       0.154000
     61 H20          1.2950     1.8880    15.4690 ha         1 ETU       0.169000
     62 H23          2.6790    -3.8440    -1.1000 h1         1 ETU       0.043367
     63 H23A         4.3530    -3.5620    -0.6020 h1         1 ETU       0.043367
     64 H23B         3.7240    -2.7930    -2.0660 h1         1 ETU       0.043367
@<TRIPOS>BOND
     1     1     5 1
     2     1    35 1
     3     1    36 1
     4     1    37 1
     5    34     2 1
     6     8     2 1
     7     2    10 1
     8     3     8 2
     9     4    33 1
    10     8     5 1
    11     5     6 1
    12     5    38 1
    13     6    12 1
    14     6    14 1
    15    16     7 1
    16     7    18 1
    17    26     9 1
    18    27     9 1
    19     9    29 1
    20    10    12 1
    21    10    39 1
    22    10    40 1
    23    32    11 2
    24    11    13 1
    25    12    41 1
    26    12    42 1
    27    33    13 2
    28    14    16 1
    29    14    43 1
    30    14    44 1
    31    17    15 1
    32    15    32 1
    33    15    33 1
    34    16    45 1
    35    16    46 1
    36    29    17 2
    37    18    19 ar
    38    18    23 ar
    39    19    20 ar
    40    19    47 1
    41    20    21 ar
    42    20    48 1
    43    22    21 ar
    44    21    24 1
    45    23    22 ar
    46    22    49 1
    47    23    50 1
    48    24    25 1
    49    24    28 1
    50    24    51 1
    51    25    26 1
    52    25    52 1
    53    25    53 1
    54    26    54 1
    55    26    55 1
    56    28    27 1
    57    27    56 1
    58    27    57 1
    59    28    58 1
    60    28    59 1
    61    29    30 1
    62    30    31 2
    63    30    60 1
    64    31    32 1
    65    31    61 1
    66    34    62 1
    67    34    63 1
    68    34    64 1
@<TRIPOS>SUBSTRUCTURE
     1 ETU         1 TEMP              0 ****  ****    0 ROOT
