@<TRIPOS>MOLECULE
ETV
   26    27     1     0     0
SMALL
bcc


@<TRIPOS>ATOM
      1 O4          0.0430   -0.2100    0.0970 o         1 ETV     -0.620500
      2 C9          1.2820   -0.1020   -0.0000 c         1 ETV      0.840900
      3 N5          2.1270   -0.0860    1.1110 nc        1 ETV     -0.720100
      4 C10         3.4550    0.0230    0.9380 cd        1 ETV      0.758500
      5 N6          4.2950    0.0190    2.0200 nh        1 ETV     -0.920800
      6 C11         4.0370    0.1400   -0.4150 cd        1 ETV     -0.160100
      7 F2          5.3760    0.2630   -0.5770 f         1 ETV     -0.159500
      8 C12         3.1860    0.1310   -1.5040 cc        1 ETV      0.040600
      9 N4          1.8330   -0.0040   -1.3400 n         1 ETV     -0.396000
     10 C13         0.9060    0.0470   -2.4660 c3        1 ETV      0.306500
     11 O5          1.3830    0.9620   -3.4630 os        1 ETV     -0.404600
     12 C15         1.6020    0.3920   -4.7490 c3        1 ETV      0.180200
     13 C16         3.0560    0.5760   -5.1780 c3        1 ETV      0.114400
     14 O6          3.9600   -0.3160   -4.5670 oh        1 ETV     -0.599800
     15 S2          1.0600   -1.3200   -4.7800 ss        1 ETV     -0.311200
     16 C14         0.5920   -1.3310   -3.0790 c3        1 ETV     -0.045300
     17 HN61        5.2640    0.1490    1.8710 hn        1 ETV      0.452300
     18 HN62        3.9370   -0.0240    2.9420 hn        1 ETV      0.452300
     19 H12         3.5770    0.2380   -2.5390 h4        1 ETV      0.205000
     20 H13        -0.0520    0.5240   -2.0760 h2        1 ETV      0.129700
     21 H15         0.9470    0.9830   -5.4480 h2        1 ETV      0.097700
     22 H161        3.4100    1.5980   -4.8660 h1        1 ETV      0.069200
     23 H162        3.1120    0.4770   -6.2960 h1        1 ETV      0.069200
     24 HO6         3.6520   -1.2150   -4.7550 ho        1 ETV      0.418000
     25 H141       -0.5060   -1.5210   -2.9960 h1        1 ETV      0.101700
     26 H142        1.1180   -2.1630   -2.5520 h1        1 ETV      0.101700
@<TRIPOS>BOND
     1    1    2 2
     2    2    3 1
     3    2    9 1
     4    3    4 2
     5    4    5 1
     6    4    6 1
     7    5   17 1
     8    5   18 1
     9    6    7 1
    10    6    8 2
    11    8    9 1
    12    8   19 1
    13    9   10 1
    14   10   11 1
    15   10   16 1
    16   10   20 1
    17   11   12 1
    18   12   13 1
    19   12   15 1
    20   12   21 1
    21   13   14 1
    22   13   22 1
    23   13   23 1
    24   14   24 1
    25   15   16 1
    26   16   25 1
    27   16   26 1
@<TRIPOS>SUBSTRUCTURE
     1 ETV         1 TEMP              0 ****  ****    0 ROOT
