@<TRIPOS>MOLECULE
ETX
   16    15     1     0     0
SMALL
bcc


@<TRIPOS>ATOM
      1 C2         -0.1520    0.0510    0.0400 c3        1 ETX      0.086400
      2 O2          1.2730    0.0240    0.0240 os        1 ETX     -0.437600
      3 C3          1.8300   -0.0440    1.3360 c3        1 ETX      0.132400
      4 C4          3.3320   -0.0580    1.1750 c3        1 ETX     -0.098100
      5 O1         -0.2560   -1.1350   -2.0800 oh        1 ETX     -0.600800
      6 C1         -0.5920    0.0680   -1.4200 c3        1 ETX      0.132400
      7 H21        -0.5430   -0.8630    0.5620 h1        1 ETX      0.037200
      8 H22        -0.5110    0.9700    0.5710 h1        1 ETX      0.037200
      9 H31         1.4940    0.8480    1.9300 h1        1 ETX      0.026200
     10 H32         1.4690   -0.9770    1.8470 h1        1 ETX      0.026200
     11 H41         3.6760    0.8650    0.6500 hc        1 ETX      0.046033
     12 H42         3.8110   -0.1060    2.1820 hc        1 ETX      0.046033
     13 H43         3.6510   -0.9420    0.5740 hc        1 ETX      0.046033
     14 HO1         0.6980   -1.2520   -1.9800 ho        1 ETX      0.413000
     15 H11        -1.7110    0.1320   -1.4800 h1        1 ETX      0.052700
     16 H12        -0.1280    0.9410   -1.9500 h1        1 ETX      0.052700
@<TRIPOS>BOND
     1    1    2 1   
     2    1    6 1   
     3    1    7 1   
     4    1    8 1   
     5    2    3 1   
     6    3    4 1   
     7    3    9 1   
     8    3   10 1   
     9    4   11 1   
    10    4   12 1   
    11    4   13 1   
    12    5    6 1   
    13    5   14 1   
    14    6   15 1   
    15    6   16 1   
@<TRIPOS>SUBSTRUCTURE
     1 ETX         1 TEMP              0 ****  ****    0 ROOT
