@<TRIPOS>MOLECULE
molecule
   16    15     1     0     0
SMALL
bcc


@<TRIPOS>ATOM
      1 C2           0.0000     0.0000     0.0000 c3         1 ETX       0.130400
      2 O2           1.4280     0.0000     0.0000 os         1 ETX      -0.395600
      3 C3           1.8420     0.0000     1.3680 c3         1 ETX       0.121400
      4 C4           3.3690     0.0000     1.4390 c3         1 ETX      -0.092100
      5 O1          -0.0330    -1.1660    -2.1160 oh         1 ETX      -0.596800
      6 C1          -0.5100    -0.0010    -1.4420 c3         1 ETX       0.141400
      7 H21         -0.3610     0.8850     0.5100 h1         1 ETX       0.031700
      8 H22         -0.3610    -0.8840     0.5110 h1         1 ETX       0.031700
      9 H31          1.4580    -0.8850     1.8610 h1         1 ETX       0.022200
     10 H32          1.4570     0.8840     1.8610 h1         1 ETX       0.022200
     11 H41          3.6820     0.0660     2.4740 hc         1 ETX       0.043700
     12 H42          3.7560     0.8500     0.8900 hc         1 ETX       0.043700
     13 H43          3.7510    -0.9150     1.0040 hc         1 ETX       0.043700
     14 HO1         -0.4170    -1.2100    -2.9760 ho         1 ETX       0.399000
     15 H11         -0.1500     0.8850    -1.9520 h1         1 ETX       0.026700
     16 H12         -1.5930    -0.0020    -1.4410 h1         1 ETX       0.026700
@<TRIPOS>BOND
     1     1     2 1
     2     1     6 1
     3     1     7 1
     4     1     8 1
     5     2     3 1
     6     3     4 1
     7     3     9 1
     8     3    10 1
     9     4    11 1
    10     4    12 1
    11     4    13 1
    12     5     6 1
    13     5    14 1
    14     6    15 1
    15     6    16 1
@<TRIPOS>SUBSTRUCTURE
     1 ETX         1 TEMP              0 ****  ****    0 ROOT
