@<TRIPOS>MOLECULE
molecule
   19    19     1     0     0
SMALL
bcc


@<TRIPOS>ATOM
      1 C8           0.0000     0.0000     0.0000 c3         1 ETY      -0.088100
      2 C7           1.5300     0.0000     0.0000 c3         1 ETY      -0.038100
      3 CG           2.0310     0.0000     1.4220 ca         1 ETY      -0.089300
      4 C3           2.2620    -1.1980     2.0720 ca         1 ETY      -0.114000
      5 C2           2.7210    -1.2010     3.3750 ca         1 ETY      -0.149500
      6 C5           2.2660     1.1980     2.0700 ca         1 ETY      -0.114000
      7 C6           2.7270     1.2010     3.3730 ca         1 ETY      -0.149500
      8 C1           2.9530     0.0010     4.0290 ca         1 ETY       0.099100
      9 O1           3.4060     0.0010     5.3120 oh         1 ETY      -0.523100
     10 H81         -0.3610     0.1150    -1.0150 hc         1 ETY       0.035700
     11 H82         -0.3610     0.8210     0.6070 hc         1 ETY       0.035700
     12 H83         -0.3610    -0.9360     0.4080 hc         1 ETY       0.035700
     13 H71          1.8910    -0.8850    -0.5110 hc         1 ETY       0.047700
     14 H72          1.8910     0.8850    -0.5110 hc         1 ETY       0.047700
     15 H3           2.0800    -2.1350     1.5600 ha         1 ETY       0.133000
     16 H2           2.8990    -2.1390     3.8850 ha         1 ETY       0.139000
     17 H5           2.0890     2.1360     1.5560 ha         1 ETY       0.133000
     18 H6           2.9090     2.1400     3.8810 ha         1 ETY       0.139000
     19 HO1          2.6720     0.0040     5.9040 ho         1 ETY       0.417000
@<TRIPOS>BOND
     1     1     2 1
     2     2     3 1
     3     3     4 ar
     4     3     6 ar
     5     4     5 ar
     6     5     8 ar
     7     6     7 ar
     8     7     8 ar
     9     8     9 1
    10     1    10 1
    11     1    11 1
    12     1    12 1
    13     2    13 1
    14     2    14 1
    15     4    15 1
    16     5    16 1
    17     6    17 1
    18     7    18 1
    19     9    19 1
@<TRIPOS>SUBSTRUCTURE
     1 ETY         1 TEMP              0 ****  ****    0 ROOT
