@<TRIPOS>MOLECULE
ETY
   19    19     1     0     0
SMALL
bcc


@<TRIPOS>ATOM
      1 C8          0.0260    0.1410   -0.0800 c3        1 ETY     -0.090100
      2 C7          1.5180   -0.0680    0.0240 c3        1 ETY     -0.033100
      3 CG          1.9850   -0.0830    1.4370 ca        1 ETY     -0.112300
      4 C3          2.3810   -1.2810    2.0440 ca        1 ETY     -0.092000
      5 C2          2.8250   -1.3020    3.3610 ca        1 ETY     -0.182500
      6 C5          2.0400    1.1070    2.1710 ca        1 ETY     -0.092000
      7 C6          2.4810    1.1100    3.4910 ca        1 ETY     -0.182500
      8 C1          2.8730   -0.0990    4.0840 ca        1 ETY      0.119100
      9 O1          3.3210   -0.1790    5.3830 oh        1 ETY     -0.499100
     10 H81        -0.5250   -0.6890    0.4240 hc        1 ETY      0.035700
     11 H82        -0.2700    1.1030    0.4050 hc        1 ETY      0.035700
     12 H83        -0.2840    0.1730   -1.1520 hc        1 ETY      0.035700
     13 H71         1.7930   -1.0340   -0.4800 hc        1 ETY      0.045200
     14 H72         2.0470    0.7540   -0.5300 hc        1 ETY      0.045200
     15 H3          2.3420   -2.2210    1.4720 ha        1 ETY      0.133500
     16 H2          3.1370   -2.2380    3.8450 ha        1 ETY      0.140500
     17 H5          1.7300    2.0520    1.6980 ha        1 ETY      0.133500
     18 H6          2.5220    2.0470    4.0630 ha        1 ETY      0.140500
     19 HO1         3.3030    0.7130    5.7590 ho        1 ETY      0.418000
@<TRIPOS>BOND
     1    1    2 1   
     2    1   10 1   
     3    1   11 1   
     4    1   12 1   
     5    2    3 1   
     6    2   13 1   
     7    2   14 1   
     8    3    4 ar  
     9    3    6 ar  
    10    4    5 ar  
    11    4   15 1   
    12    5    8 ar  
    13    5   16 1   
    14    6    7 ar  
    15    6   17 1   
    16    7    8 ar  
    17    7   18 1   
    18    8    9 1   
    19    9   19 1   
@<TRIPOS>SUBSTRUCTURE
     1 ETY         1 TEMP              0 ****  ****    0 ROOT
