@<TRIPOS>MOLECULE
molecule
   15    14     1     0     0
SMALL
bcc


@<TRIPOS>ATOM
      1 O1           0.0000     0.0000     0.0000 os         1 ETZ      -0.432600
      2 C1           1.9400    -0.0000    -1.4420 c3         1 ETZ      -0.091100
      3 C2           1.4290     0.0000     0.0000 c3         1 ETZ       0.137400
      4 C3          -0.5820     0.0000     1.3050 c3         1 ETZ       0.137400
      5 C4          -2.1070     0.0000     1.1840 c3         1 ETZ      -0.091100
      6 H1           3.0230    -0.0000    -1.4420 hc         1 ETZ       0.043700
      7 H2           1.5790     0.8850    -1.9530 hc         1 ETZ       0.043700
      8 H3           1.5790    -0.8850    -1.9530 hc         1 ETZ       0.043700
      9 H4           1.7900     0.8840     0.5110 h1         1 ETZ       0.020700
     10 H5           1.7900    -0.8840     0.5110 h1         1 ETZ       0.020700
     11 H6          -0.2630    -0.8840     1.8430 h1         1 ETZ       0.020700
     12 H7          -0.2630     0.8840     1.8430 h1         1 ETZ       0.020700
     13 H8          -2.4270    -0.8850     0.6460 hc         1 ETZ       0.043700
     14 H9          -2.4270     0.8850     0.6460 hc         1 ETZ       0.043700
     15 H10         -2.5480     0.0000     2.1730 hc         1 ETZ       0.043700
@<TRIPOS>BOND
     1     5     4 1
     2     4     1 1
     3     1     3 1
     4     3     2 1
     5     2     6 1
     6     2     7 1
     7     2     8 1
     8     3     9 1
     9     3    10 1
    10     4    11 1
    11     4    12 1
    12     5    13 1
    13     5    14 1
    14     5    15 1
@<TRIPOS>SUBSTRUCTURE
     1 ETZ         1 TEMP              0 ****  ****    0 ROOT
