@<TRIPOS>MOLECULE
EU2
   41    44     1     0     0
SMALL
bcc


@<TRIPOS>ATOM
      1 C2           0.0000     0.0000     0.0000 ca         1 EU2      -0.360200
      2 C3           1.3850     0.0000     0.0000 ca         1 EU2       0.502200
      3 N4           2.0320     0.0000     1.1540 nb         1 EU2      -0.698000
      4 C5           1.3750    -0.0010     2.3050 ca         1 EU2       0.726900
      5 C7           3.5540    -0.0080     3.4620 c3         1 EU2       0.135500
      6 C8           4.0920     0.5900     4.7660 c3         1 EU2      -0.082400
      7 C11          5.5950    -1.4430     3.3720 c3         1 EU2       0.220900
      8 C12          4.0640    -1.4450     3.3220 c3         1 EU2      -0.082400
      9 C14         -0.6650     0.0050     1.2290 cp         1 EU2       0.538800
     10 C15         -2.1480     0.0120     1.2830 cp         1 EU2      -0.180500
     11 C16         -2.8780     0.7010     0.3150 ca         1 EU2      -0.074000
     12 C19         -6.3790    -0.1520     1.6960 c3         1 EU2       0.101300
     13 C21         -5.1690    -1.2850     3.2700 c          1 EU2       0.644100
     14 C23         -4.2030    -0.6670     2.3420 ca         1 EU2      -0.180600
     15 C24         -2.8090    -0.6750     2.2960 ca         1 EU2       0.030000
     16 Cl1         -0.8890     0.0010    -1.4920 cl         1 EU2       0.008600
     17 N6           2.0900    -0.0080     3.4900 nu         1 EU2      -0.468900
     18 C9           5.6210     0.5150     4.7600 c3         1 EU2       0.220900
     19 O10          6.0290    -0.8460     4.5980 os         1 EU2      -0.409600
     20 N13          0.0510    -0.0010     2.3500 nb         1 EU2      -0.677000
     21 C17         -4.2590     0.7070     0.3630 ca         1 EU2      -0.086000
     22 C18         -4.9190     0.0330     1.3660 ca         1 EU2      -0.087300
     23 N20         -6.4260    -0.9850     2.9030 ns         1 EU2      -0.198900
     24 O22         -4.8690    -1.9650     4.2320 o          1 EU2      -0.669500
     25 H25          1.9320    -0.0020    -0.9350 h4         1 EU2      -0.010900
     26 H27          3.9050     0.5820     2.6240 h1         1 EU2       0.056700
     27 H28          3.7060     0.0280     5.6070 hc         1 EU2       0.030200
     28 H29          3.7830     1.6260     4.8430 hc         1 EU2       0.030200
     29 H33          5.9580    -2.4630     3.3200 h1         1 EU2       0.009950
     30 H32          5.9820    -0.8730     2.5370 h1         1 EU2       0.009950
     31 H34          3.7350    -1.8540     2.3750 hc         1 EU2       0.030200
     32 H35          3.6770    -2.0460     4.1370 hc         1 EU2       0.030200
     33 H36         -2.3610     1.2560    -0.4580 ha         1 EU2       0.128000
     34 H39         -6.8400     0.8090     1.8900 h1         1 EU2       0.024700
     35 H38         -6.8830    -0.6550     0.8790 h1         1 EU2       0.024700
     36 H41         -2.2480    -1.2900     2.9890 ha         1 EU2       0.128000
     37 H26          1.6070    -0.0020     4.3660 hn         1 EU2       0.304800
     38 H30          6.0040     0.8960     5.6990 h1         1 EU2       0.009950
     39 H31          6.0080     1.1070     3.9390 h1         1 EU2       0.009950
     40 H37         -4.8240     1.2430    -0.3910 ha         1 EU2       0.107000
     41 H40         -7.2580    -1.2800     3.3760 hn         1 EU2       0.203500
@<TRIPOS>BOND
     1     1     2 ar  
     2     1     9 ar  
     3     1    16 1   
     4     2     3 ar  
     5     2    25 1   
     6     3     4 ar  
     7     4    17 1   
     8     4    20 ar  
     9     5     6 1   
    10     5     8 1   
    11     5    17 1   
    12     5    26 1   
    13     6    18 1   
    14     6    27 1   
    15     6    28 1   
    16     7     8 1   
    17     7    19 1   
    18     7    29 1   
    19     7    30 1   
    20     8    31 1   
    21     8    32 1   
    22     9    10 1   
    23     9    20 ar  
    24    10    11 ar  
    25    10    15 ar  
    26    11    21 ar  
    27    11    33 1   
    28    12    22 1   
    29    12    23 1   
    30    12    34 1   
    31    12    35 1   
    32    13    14 1   
    33    13    23 1   
    34    13    24 2   
    35    14    15 ar  
    36    14    22 ar  
    37    15    36 1   
    38    17    37 1   
    39    18    19 1   
    40    18    38 1   
    41    18    39 1   
    42    21    22 ar  
    43    21    40 1   
    44    23    41 1   
@<TRIPOS>SUBSTRUCTURE
     1 EU2         1 TEMP              0 ****  ****    0 ROOT
