@<TRIPOS>MOLECULE
molecule
   41    44     1     0     0
SMALL
bcc


@<TRIPOS>ATOM
      1 C2           0.0000     0.0000     0.0000 ca         1 EU2      -0.290200
      2 C3           1.3850     0.0000     0.0000 ca         1 EU2       0.515200
      3 N4           2.0320     0.0000     1.1540 nb         1 EU2      -0.796000
      4 C5           1.3750    -0.0010     2.3050 ca         1 EU2       0.949900
      5 C7           3.5540    -0.0080     3.4620 c3         1 EU2       0.249500
      6 C8           4.0920     0.5900     4.7660 c3         1 EU2      -0.134400
      7 C11          5.5950    -1.4430     3.3720 c3         1 EU2       0.140900
      8 C12          4.0640    -1.4450     3.3220 c3         1 EU2      -0.134400
      9 C14         -0.6650     0.0050     1.2290 cp         1 EU2       0.578800
     10 C15         -2.1480     0.0120     1.2830 cp         1 EU2      -0.173500
     11 C16         -2.8780     0.7010     0.3150 ca         1 EU2      -0.073000
     12 C19         -6.3790    -0.1520     1.6960 c3         1 EU2       0.138300
     13 C21         -5.1690    -1.2850     3.2700 c          1 EU2       0.717100
     14 C23         -4.2030    -0.6670     2.3420 ca         1 EU2      -0.173600
     15 C24         -2.8090    -0.6750     2.2960 ca         1 EU2      -0.006000
     16 Cl1         -0.8890     0.0010    -1.4920 cl         1 EU2      -0.093400
     17 N6           2.0900    -0.0080     3.4900 nu         1 EU2      -0.885900
     18 C9           5.6210     0.5150     4.7600 c3         1 EU2       0.140900
     19 O10          6.0290    -0.8460     4.5980 os         1 EU2      -0.422600
     20 N13          0.0510    -0.0010     2.3500 nb         1 EU2      -0.784000
     21 C17         -4.2590     0.7070     0.3630 ca         1 EU2      -0.127000
     22 C18         -4.9190     0.0330     1.3660 ca         1 EU2      -0.075300
     23 N20         -6.4260    -0.9850     2.9030 ns         1 EU2      -0.586900
     24 O22         -4.8690    -1.9650     4.2320 o          1 EU2      -0.625500
     25 H25          1.9320    -0.0020    -0.9350 h4         1 EU2       0.040100
     26 H27          3.9050     0.5820     2.6240 h1         1 EU2       0.078700
     27 H28          3.7060     0.0280     5.6070 hc         1 EU2       0.059450
     28 H29          3.7830     1.6260     4.8430 hc         1 EU2       0.059450
     29 H33          5.9580    -2.4630     3.3200 h1         1 EU2       0.050200
     30 H32          5.9820    -0.8730     2.5370 h1         1 EU2       0.050200
     31 H34          3.7350    -1.8540     2.3750 hc         1 EU2       0.059450
     32 H35          3.6770    -2.0460     4.1370 hc         1 EU2       0.059450
     33 H36         -2.3610     1.2560    -0.4580 ha         1 EU2       0.157000
     34 H39         -6.8400     0.8090     1.8900 h1         1 EU2       0.060700
     35 H38         -6.8830    -0.6550     0.8790 h1         1 EU2       0.060700
     36 H41         -2.2480    -1.2900     2.9890 ha         1 EU2       0.164000
     37 H26          1.6070    -0.0020     4.3660 hn         1 EU2       0.461800
     38 H30          6.0040     0.8960     5.6990 h1         1 EU2       0.050200
     39 H31          6.0080     1.1070     3.9390 h1         1 EU2       0.050200
     40 H37         -4.8240     1.2430    -0.3910 ha         1 EU2       0.137000
     41 H40         -7.2580    -1.2800     3.3760 hn         1 EU2       0.352500
@<TRIPOS>BOND
     1    19     7 1
     2    19    18 1
     3     7     8 1
     4     8     5 1
     5    18     6 1
     6     6     5 1
     7     5    17 1
     8    17     4 1
     9     4    20 ar
    10     4     3 ar
    11    20     9 ar
    12     3     2 ar
    13    11    21 ar
    14    11    10 ar
    15    21    22 ar
    16     9    10 1
    17     9     1 ar
    18    10    15 ar
    19    22    12 1
    20    22    14 ar
    21    12    23 1
    22    15    14 ar
    23    14    13 1
    24     2     1 ar
    25    23    13 1
    26     1    16 1
    27    13    24 2
    28     2    25 1
    29     5    26 1
    30     6    27 1
    31     6    28 1
    32     7    29 1
    33     7    30 1
    34     8    31 1
    35     8    32 1
    36    11    33 1
    37    12    34 1
    38    12    35 1
    39    15    36 1
    40    17    37 1
    41    18    38 1
    42    18    39 1
    43    21    40 1
    44    23    41 1
@<TRIPOS>SUBSTRUCTURE
     1 EU2         1 TEMP              0 ****  ****    0 ROOT
