@<TRIPOS>MOLECULE
EU4
   54    58     1     0     0
SMALL
bcc


@<TRIPOS>ATOM
      1 C10          0.0000     0.0000     0.0000 ca         1 EU4      -0.161300
      2 N12         -0.0090    -0.0050     2.3500 nb         1 EU4      -0.564000
      3 C13          1.3230     0.0010     2.3940 cp         1 EU4       0.395800
      4 C15          1.4190     0.0000     0.0000 ca         1 EU4       0.019000
      5 C17          1.4350    -0.0020    -2.4010 ca         1 EU4      -0.045000
      6 C20          1.2580    -0.0060     4.8860 ca         1 EU4      -0.014000
      7 C21          1.8980    -0.0130     6.1090 ca         1 EU4      -0.146300
      8 C22          3.2800    -0.0120     6.1680 ca         1 EU4      -0.056000
      9 C24          3.3980     0.0060     3.7760 ca         1 EU4      -0.083000
     10 C01         -8.0570     3.0230    -1.6760 c3         1 EU4      -0.030100
     11 C02         -6.4390     3.2730    -1.4890 c3         1 EU4      -0.029000
     12 C03         -5.9050     3.1170    -3.0960 c3         1 EU4      -0.030100
     13 C06         -4.9190     0.3070    -1.0710 cc         1 EU4       0.546800
     14 C07         -3.3080    -0.0120    -1.3860 cg         1 EU4      -0.138200
     15 C09         -0.7040    -0.0010    -1.2800 ca         1 EU4       0.048000
     16 C11         -0.6800    -0.0050     1.2220 ca         1 EU4       0.429200
     17 C14          2.0830     0.0000     1.2380 ca         1 EU4      -0.224300
     18 C16          2.1130    -0.0020    -1.2200 ca         1 EU4      -0.101000
     19 C18          0.0480    -0.0010    -2.4510 ca         1 EU4      -0.105000
     20 C19          2.0060     0.0000     3.7110 cp         1 EU4      -0.156500
     21 C23          4.0280    -0.0060     5.0050 ca         1 EU4      -0.111000
     22 C29         -5.9400     0.1670     0.1860 ca         1 EU4      -0.460500
     23 C30         -6.5870     1.2910     0.1910 ca         1 EU4       0.455800
     24 C32         -7.7230     0.6630     1.9000 ca         1 EU4       0.661900
     25 C34         -5.9460    -0.8790     0.8780 ca         1 EU4       0.560200
     26 F26          0.2210    -1.1060     7.7800 f          1 EU4      -0.224967
     27 F27          1.7200     0.5360     8.5030 f          1 EU4      -0.224967
     28 F28          0.3810     1.2330     7.2270 f          1 EU4      -0.224967
     29 N04         -6.0770     1.9520    -0.8250 na         1 EU4       0.251200
     30 N05         -4.9290     1.4200    -1.7880 nd         1 EU4      -0.574100
     31 N31         -7.5110     1.4520     1.1400 nb         1 EU4      -0.534000
     32 N33         -6.8710    -0.7540     1.8530 nb         1 EU4      -0.806000
     33 N35         -6.4640    -2.2190     0.6910 nv         1 EU4      -0.604500
     34 H1           2.0730    -0.0800    -3.2740 ha         1 EU4       0.103000
     35 H2           0.1800     0.0860     4.8360 ha         1 EU4       0.141000
     36 H3           3.9980    -0.1250     6.9720 ha         1 EU4       0.124000
     37 H4           3.8550     0.2390     2.8220 ha         1 EU4       0.120000
     38 H5          -8.3190     3.1450    -2.7200 hc         1 EU4       0.014533
     39 H6          -8.2880     4.0670    -1.5000 hc         1 EU4       0.014533
     40 H7          -8.6830     2.3560    -1.0960 hc         1 EU4       0.014533
     41 H8          -6.0840     4.2750    -1.2810 h1         1 EU4       0.075700
     42 H9          -5.9990     2.1140    -3.4950 hc         1 EU4       0.014533
     43 H10         -6.2660     3.9410    -3.6990 hc         1 EU4       0.014533
     44 H11         -4.8760     3.4530    -3.1430 hc         1 EU4       0.014533
     45 H12         -1.7030     0.3410     1.1350 h4         1 EU4      -0.007900
     46 H13          3.0810     0.0800     1.6530 ha         1 EU4       0.149000
     47 H14          3.1870    -0.1440    -1.2510 ha         1 EU4       0.111000
     48 H15         -0.8310     0.0660    -3.0800 ha         1 EU4       0.140000
     49 H16          5.1100    -0.0140     5.0530 ha         1 EU4       0.111000
     50 H17         -8.4540     0.8020     2.6870 h5         1 EU4      -0.006900
     51 H18         -6.7070    -2.2540    -0.2790 hn         1 EU4       0.295800
     52 H19         -6.4520    -2.8940     1.4300 hn         1 EU4       0.295800
     53 C08         -2.1340     0.0000    -1.3300 ch         1 EU4      -0.108000
     54 C25          1.0900    -0.0190     7.3810 c3         1 EU4       0.645200
@<TRIPOS>BOND
     1     1     4 ar  
     2     1    15 ar  
     3     1    16 ar  
     4     2     3 ar  
     5     2    16 ar  
     6     3    17 ar  
     7     3    20 1   
     8     4    17 ar  
     9     4    18 ar  
    10     5    18 ar  
    11     5    19 ar  
    12     5    34 1   
    13     6     7 ar  
    14     6    20 ar  
    15     6    35 1   
    16     7     8 ar  
    17     7    54 1   
    18     8    21 ar  
    19     8    36 1   
    20     9    20 ar  
    21     9    21 ar  
    22     9    37 1   
    23    10    11 1   
    24    10    38 1   
    25    10    39 1   
    26    10    40 1   
    27    11    12 1   
    28    11    29 1   
    29    11    41 1   
    30    12    42 1   
    31    12    43 1   
    32    12    44 1   
    33    13    14 1   
    34    13    22 1   
    35    13    30 2   
    36    14    53 3   
    37    15    19 ar  
    38    15    53 1   
    39    16    45 1   
    40    17    46 1   
    41    18    47 1   
    42    19    48 1   
    43    21    49 1   
    44    22    23 ar  
    45    22    25 ar  
    46    23    29 1   
    47    23    31 ar  
    48    24    31 ar  
    49    24    32 ar  
    50    24    50 1   
    51    25    32 ar  
    52    25    33 1   
    53    26    54 1   
    54    27    54 1   
    55    28    54 1   
    56    29    30 1   
    57    33    51 1   
    58    33    52 1   
@<TRIPOS>SUBSTRUCTURE
     1 EU4         1 TEMP              0 ****  ****    0 ROOT
