@<TRIPOS>MOLECULE
molecule
   54    58     1     0     0
SMALL
bcc


@<TRIPOS>ATOM
      1 C10          0.0000     0.0000     0.0000 ca         1 EU4      -0.161300
      2 N12         -0.0090    -0.0050     2.3500 nb         1 EU4      -0.690000
      3 C13          1.3230     0.0010     2.3940 cp         1 EU4       0.448800
      4 C15          1.4190     0.0000     0.0000 ca         1 EU4       0.013000
      5 C17          1.4350    -0.0020    -2.4010 ca         1 EU4      -0.084000
      6 C20          1.2580    -0.0060     4.8860 ca         1 EU4      -0.043000
      7 C21          1.8980    -0.0130     6.1090 ca         1 EU4      -0.120300
      8 C22          3.2800    -0.0120     6.1680 ca         1 EU4      -0.089000
      9 C24          3.3980     0.0060     3.7760 ca         1 EU4      -0.106000
     10 C01         -8.0570     3.0230    -1.6760 c3         1 EU4      -0.110100
     11 C02         -6.4390     3.2730    -1.4890 c3         1 EU4       0.046000
     12 C03         -5.9050     3.1170    -3.0960 c3         1 EU4      -0.110100
     13 C06         -4.9190     0.3070    -1.0710 cc         1 EU4       0.469800
     14 C07         -3.3080    -0.0120    -1.3860 ch         1 EU4      -0.144200
     15 C09         -0.7040    -0.0010    -1.2800 ca         1 EU4       0.021000
     16 C11         -0.6800    -0.0050     1.2220 ca         1 EU4       0.459200
     17 C14          2.0830     0.0000     1.2380 ca         1 EU4      -0.242300
     18 C16          2.1130    -0.0020    -1.2200 ca         1 EU4      -0.119000
     19 C18          0.0480    -0.0010    -2.4510 ca         1 EU4      -0.116000
     20 C19          2.0060     0.0000     3.7110 cp         1 EU4      -0.150500
     21 C23          4.0280    -0.0060     5.0050 ca         1 EU4      -0.139000
     22 C29         -5.9400     0.1670     0.1860 ca         1 EU4      -0.433500
     23 C30         -6.5870     1.2910     0.1910 ca         1 EU4       0.652800
     24 C32         -7.7230     0.6630     1.9000 ca         1 EU4       0.705900
     25 C34         -5.9460    -0.8790     0.8780 ca         1 EU4       0.655200
     26 F26          0.2210    -1.1060     7.7800 f          1 EU4      -0.231967
     27 F27          1.7200     0.5360     8.5030 f          1 EU4      -0.231967
     28 F28          0.3810     1.2330     7.2270 f          1 EU4      -0.231967
     29 N04         -6.0770     1.9520    -0.8250 na         1 EU4      -0.127800
     30 N05         -4.9290     1.4200    -1.7880 nd         1 EU4      -0.404100
     31 N31         -7.5110     1.4520     1.1400 nb         1 EU4      -0.720000
     32 N33         -6.8710    -0.7540     1.8530 nb         1 EU4      -0.763000
     33 N35         -6.4640    -2.2190     0.6910 nv         1 EU4      -1.042500
     34 H1           2.0730    -0.0800    -3.2740 ha         1 EU4       0.136000
     35 H2           0.1800     0.0860     4.8360 ha         1 EU4       0.175000
     36 H3           3.9980    -0.1250     6.9720 ha         1 EU4       0.153000
     37 H4           3.8550     0.2390     2.8220 ha         1 EU4       0.142000
     38 H5          -8.3190     3.1450    -2.7200 hc         1 EU4       0.042867
     39 H6          -8.2880     4.0670    -1.5000 hc         1 EU4       0.042867
     40 H7          -8.6830     2.3560    -1.0960 hc         1 EU4       0.042867
     41 H8          -6.0840     4.2750    -1.2810 h1         1 EU4       0.109700
     42 H9          -5.9990     2.1140    -3.4950 hc         1 EU4       0.042867
     43 H10         -6.2660     3.9410    -3.6990 hc         1 EU4       0.042867
     44 H11         -4.8760     3.4530    -3.1430 hc         1 EU4       0.042867
     45 H12         -1.7030     0.3410     1.1350 h4         1 EU4       0.039100
     46 H13          3.0810     0.0800     1.6530 ha         1 EU4       0.162000
     47 H14          3.1870    -0.1440    -1.2510 ha         1 EU4       0.141000
     48 H15         -0.8310     0.0660    -3.0800 ha         1 EU4       0.166000
     49 H16          5.1100    -0.0140     5.0530 ha         1 EU4       0.141000
     50 H17         -8.4540     0.8020     2.6870 h5         1 EU4       0.060100
     51 H18         -6.7070    -2.2540    -0.2790 hn         1 EU4       0.455300
     52 H19         -6.4520    -2.8940     1.4300 hn         1 EU4       0.455300
     53 C08         -2.1340     0.0000    -1.3300 cg         1 EU4      -0.106000
     54 C25          1.0900    -0.0190     7.3810 c3         1 EU4       0.650200
@<TRIPOS>BOND
     1    27    54 1
     2    26    54 1
     3    54    28 1
     4    54     7 1
     5     8     7 ar
     6     8    21 ar
     7     7     6 ar
     8    21     9 ar
     9     6    20 ar
    10     9    20 ar
    11    20     3 1
    12     3     2 ar
    13     3    17 ar
    14     2    16 ar
    15    17     4 ar
    16    16     1 ar
    17     4     1 ar
    18     4    18 ar
    19     1    15 ar
    20    10    11 1
    21    18     5 ar
    22    15    53 1
    23    15    19 ar
    24    53    14 3
    25    30    13 2
    26    30    29 1
    27    14    13 1
    28    11    12 1
    29    11    29 1
    30    13    22 1
    31    29    23 1
    32    22    23 ar
    33    22    25 ar
    34    23    31 ar
    35    25    33 1
    36    25    32 ar
    37    31    24 ar
    38     5    19 ar
    39    32    24 ar
    40     5    34 1
    41     6    35 1
    42     8    36 1
    43     9    37 1
    44    10    38 1
    45    10    39 1
    46    10    40 1
    47    11    41 1
    48    12    42 1
    49    12    43 1
    50    12    44 1
    51    16    45 1
    52    17    46 1
    53    18    47 1
    54    19    48 1
    55    21    49 1
    56    24    50 1
    57    33    51 1
    58    33    52 1
@<TRIPOS>SUBSTRUCTURE
     1 EU4         1 TEMP              0 ****  ****    0 ROOT
