@<TRIPOS>MOLECULE
molecule
   35    37     1     0     0
SMALL
bcc


@<TRIPOS>ATOM
      1 CA           0.0000     0.0000     0.0000 c3         1 EU7      -0.122100
      2 CB           1.5300     0.0000     0.0000 c3         1 EU7       0.106500
      3 NC           2.0200     0.0000     1.3850 nz         1 EU7      -0.811600
      4 CD           2.0410     1.2500    -0.7210 c3         1 EU7      -0.086000
      5 CE1          3.5710     1.2500    -0.7210 c3         1 EU7      -0.070067
      6 CE2          1.5310     1.2490    -2.1640 c3         1 EU7      -0.070067
      7 CE3          1.5300     2.4990     0.0000 c3         1 EU7      -0.070067
      8 CF1          4.0810     2.4990    -1.4420 c3         1 EU7      -0.060700
      9 CF2          2.0410     2.4990    -2.8850 c3         1 EU7      -0.060700
     10 CF3          2.0400     3.7480    -0.7210 c3         1 EU7      -0.060700
     11 CG1          3.5710     2.5000    -2.8840 c3         1 EU7      -0.073400
     12 CG2          1.5300     3.7480    -2.1630 c3         1 EU7      -0.073400
     13 CG3          3.5700     3.7480    -0.7210 c3         1 EU7      -0.073400
     14 HA3         -0.3610    -0.9060     0.4720 hc         1 EU7       0.075700
     15 HA2         -0.3610     0.0440    -1.0200 hc         1 EU7       0.075700
     16 HA1         -0.3610     0.8620     0.5490 hc         1 EU7       0.075700
     17 HB           1.8910    -0.8850    -0.5110 hx         1 EU7       0.113700
     18 HNC2         3.0200     0.0220     1.3850 hn         1 EU7       0.454467
     19 HNC3         1.6680     0.8060     1.8630 hn         1 EU7       0.454467
     20 HE12         3.9320     0.3650    -1.2320 hc         1 EU7       0.041700
     21 HE11         3.9320     1.2500     0.3000 hc         1 EU7       0.041700
     22 HE22         0.4480     1.2490    -2.1640 hc         1 EU7       0.041700
     23 HE21         1.8920     0.3640    -2.6740 hc         1 EU7       0.041700
     24 HE32         0.4470     2.4980    -0.0000 hc         1 EU7       0.041700
     25 HE31         1.8910     2.4990     1.0220 hc         1 EU7       0.041700
     26 HF1          5.1640     2.4990    -1.4420 hc         1 EU7       0.073700
     27 HF2          1.6810     2.4990    -3.9060 hc         1 EU7       0.073700
     28 HF3          1.6790     4.6320    -0.2100 hc         1 EU7       0.073700
     29 HG12         3.9320     3.3840    -3.3950 hc         1 EU7       0.058367
     30 HG11         3.9320     1.6150    -3.3960 hc         1 EU7       0.058367
     31 HG22         0.4470     3.7480    -2.1630 hc         1 EU7       0.058367
     32 HG21         1.8910     4.6330    -2.6740 hc         1 EU7       0.058367
     33 HG32         3.9310     3.7480     0.3010 hc         1 EU7       0.058367
     34 HG31         3.9310     4.6330    -1.2310 hc         1 EU7       0.058367
     35 HC3          1.7040    -0.8280     1.8500 hn         1 EU7       0.454467
@<TRIPOS>BOND
     1     1     2 1
     2     2     3 1
     3     2     4 1
     4     4     5 1
     5     4     6 1
     6     4     7 1
     7     5     8 1
     8     6     9 1
     9     7    10 1
    10     8    11 1
    11     8    13 1
    12     9    11 1
    13     9    12 1
    14    10    12 1
    15    10    13 1
    16     1    14 1
    17     1    15 1
    18     1    16 1
    19     2    17 1
    20     3    18 1
    21     3    19 1
    22     5    20 1
    23     5    21 1
    24     6    22 1
    25     6    23 1
    26     7    24 1
    27     7    25 1
    28     8    26 1
    29     9    27 1
    30    10    28 1
    31    11    29 1
    32    11    30 1
    33    12    31 1
    34    12    32 1
    35    13    33 1
    36    13    34 1
    37    35     3 1
@<TRIPOS>SUBSTRUCTURE
     1 EU7         1 TEMP              0 ****  ****    0 ROOT
