@<TRIPOS>MOLECULE
molecule
   41    42     1     0     0
SMALL
bcc


@<TRIPOS>ATOM
      1 C1           0.0000     0.0000     0.0000 c3         1 EUD      -0.068400
      2 C2           1.5300     0.0000     0.0000 c3         1 EUD      -0.085700
      3 C3           2.0390     0.0000     1.4430 c3         1 EUD      -0.069700
      4 C4           1.5280     1.2490     2.1650 c3         1 EUD      -0.088100
      5 C5           3.5690    -0.0010     1.4440 c3         1 EUD      -0.074400
      6 C6           4.0790    -1.2490     0.7220 c3         1 EUD      -0.082400
      7 C7           3.5700    -1.2500    -0.7200 c3         1 EUD      -0.069400
      8 C8           2.0400    -1.2490    -0.7210 c3         1 EUD      -0.059000
      9 C9           1.5300    -2.4990     0.0010 c3         1 EUD      -0.088100
     10 C10          1.5310    -1.2490    -2.1630 c3         1 EUD      -0.093400
     11 C11          0.0010    -1.2490    -2.1640 c3         1 EUD      -0.070400
     12 C12         -0.5090    -0.0000    -1.4430 c3         1 EUD      -0.030500
     13 C13         -0.0070     1.2300    -2.1530 c2         1 EUD      -0.118400
     14 C14         -0.9840     2.1910    -2.7790 c3         1 EUD      -0.052900
     15 C15          1.2800     1.4640    -2.2270 c2         1 EUD      -0.270000
     16 H11         -0.3600    -0.8860     0.5090 hc         1 EUD       0.046200
     17 H12         -0.3600     0.8860     0.5090 hc         1 EUD       0.046200
     18 H2           1.8910     0.8850    -0.5100 hc         1 EUD       0.086700
     19 H33          1.6800    -0.8870     1.9500 hc         1 EUD       0.051700
     20 H41          1.6900     2.1190     1.5400 hc         1 EUD       0.033700
     21 H42          0.4700     1.1410     2.3670 hc         1 EUD       0.033700
     22 H43          2.0640     1.3700     3.0980 hc         1 EUD       0.033700
     23 H51          3.9290     0.8830     0.9320 hc         1 EUD       0.040700
     24 H52          3.9280    -0.0040     2.4660 hc         1 EUD       0.040700
     25 H61          5.1630    -1.2460     0.7210 hc         1 EUD       0.041200
     26 H62          3.7170    -2.1340     1.2320 hc         1 EUD       0.041200
     27 H71          3.9290    -2.1360    -1.2280 hc         1 EUD       0.040700
     28 H72          3.9300    -0.3640    -1.2290 hc         1 EUD       0.040700
     29 H91          0.4540    -2.4370     0.1130 hc         1 EUD       0.036367
     30 H92          1.7820    -3.3790    -0.5790 hc         1 EUD       0.036367
     31 H93          1.9920    -2.5670     0.9780 hc         1 EUD       0.036367
     32 H101         1.8910    -2.1360    -2.6720 hc         1 EUD       0.053700
     33 H102         1.8920    -0.3640    -2.6720 hc         1 EUD       0.053700
     34 H111        -0.3590    -1.2460    -3.1860 hc         1 EUD       0.043200
     35 H112        -0.3600    -2.1330    -1.6510 hc         1 EUD       0.043200
     36 H121        -1.5920    -0.0040    -1.4410 hc         1 EUD       0.050700
     37 H141        -1.9800     1.9880    -2.4040 hc         1 EUD       0.040033
     38 H142        -0.9720     2.0690    -3.8550 hc         1 EUD       0.040033
     39 H143        -0.7040     3.2070    -2.5280 hc         1 EUD       0.040033
     40 H151         1.6410     2.3490    -2.7380 ha         1 EUD       0.134000
     41 H152         1.9830     0.7730    -1.7770 ha         1 EUD       0.134000
@<TRIPOS>BOND
     1     1     2 1
     2     1    12 1
     3     1    16 1
     4     1    17 1
     5     2     3 1
     6     2     8 1
     7     2    18 1
     8     3     4 1
     9     3     5 1
    10     3    19 1
    11     4    20 1
    12     4    21 1
    13     4    22 1
    14     5     6 1
    15     5    23 1
    16     5    24 1
    17     6     7 1
    18     6    25 1
    19     6    26 1
    20     7     8 1
    21     7    27 1
    22     7    28 1
    23     8     9 1
    24     8    10 1
    25     9    29 1
    26     9    30 1
    27     9    31 1
    28    10    11 1
    29    10    32 1
    30    10    33 1
    31    11    12 1
    32    11    34 1
    33    11    35 1
    34    12    13 1
    35    12    36 1
    36    13    14 1
    37    13    15 2
    38    14    37 1
    39    14    38 1
    40    14    39 1
    41    15    40 1
    42    15    41 1
@<TRIPOS>SUBSTRUCTURE
     1 EUD         1 TEMP              0 ****  ****    0 ROOT
