@<TRIPOS>MOLECULE
EUD
   41    42     1     0     0
SMALL
bcc


@<TRIPOS>ATOM
      1 C1          0.1070    0.0420   -0.2290 c3        1 EUD     -0.064400
      2 C2          1.6030   -0.0960   -0.0090 c3        1 EUD     -0.046700
      3 C3          1.9770    0.0230    1.4690 c3        1 EUD     -0.059700
      4 C4          1.4980    1.3300    2.0690 c3        1 EUD     -0.090100
      5 C5          3.4890   -0.0810    1.6350 c3        1 EUD     -0.073400
      6 C6          4.0380   -1.3500    1.0250 c3        1 EUD     -0.075400
      7 C7          3.6410   -1.4810   -0.4290 c3        1 EUD     -0.070400
      8 C8          2.1230   -1.4050   -0.6270 c3        1 EUD     -0.043000
      9 C9          1.4760   -2.6450   -0.0290 c3        1 EUD     -0.083100
     10 C10         1.8380   -1.3600   -2.1300 c3        1 EUD     -0.070400
     11 C11         0.3850   -1.1050   -2.4670 c3        1 EUD     -0.068400
     12 C12        -0.2870    0.0270   -1.7030 c3        1 EUD     -0.022500
     13 C13        -0.1230    1.3800   -2.3270 c2        1 EUD     -0.107400
     14 C14        -1.2350    2.3260   -2.0390 c3        1 EUD     -0.063900
     15 C15         0.9000    1.7440   -3.1040 c2        1 EUD     -0.227000
     16 H11        -0.4270   -0.7930    0.2990 hc        1 EUD      0.042200
     17 H12        -0.2490    1.0040    0.2270 hc        1 EUD      0.042200
     18 H2          2.1090    0.7510   -0.5580 hc        1 EUD      0.053700
     19 H33         1.4940   -0.8230    2.0330 hc        1 EUD      0.047700
     20 H41         0.3910    1.3200    2.2080 hc        1 EUD      0.033033
     21 H42         1.9700    1.4910    3.0690 hc        1 EUD      0.033033
     22 H43         1.7670    2.1900    1.4100 hc        1 EUD      0.033033
     23 H51         3.7430   -0.0510    2.7270 hc        1 EUD      0.038700
     24 H52         3.9730    0.8080    1.1520 hc        1 EUD      0.038700
     25 H61         5.1570   -1.3470    1.1030 hc        1 EUD      0.038200
     26 H62         3.6680   -2.2380    1.6020 hc        1 EUD      0.038200
     27 H71         4.1270   -0.6590   -1.0180 hc        1 EUD      0.038700
     28 H72         4.0160   -2.4560   -0.8360 hc        1 EUD      0.038700
     29 H91         1.6090   -2.6740    1.0780 hc        1 EUD      0.034033
     30 H92         0.3830   -2.6710   -0.2540 hc        1 EUD      0.034033
     31 H93         1.9430   -3.5630   -0.4630 hc        1 EUD      0.034033
     32 H101        2.1460   -2.3390   -2.5870 hc        1 EUD      0.038700
     33 H102        2.4830   -0.5670   -2.5920 hc        1 EUD      0.038700
     34 H111       -0.1960   -2.0460   -2.2640 hc        1 EUD      0.040200
     35 H112        0.3030   -0.8990   -3.5680 hc        1 EUD      0.040200
     36 H121       -1.3990   -0.1930   -1.7340 hc        1 EUD      0.044700
     37 H141       -2.1720    1.9770   -2.5430 hc        1 EUD      0.040700
     38 H142       -1.4310    2.3810   -0.9400 hc        1 EUD      0.040700
     39 H143       -1.0020    3.3550   -2.4070 hc        1 EUD      0.040700
     40 H151        1.7310    1.0770   -3.3580 ha        1 EUD      0.112000
     41 H152        0.9680    2.7490   -3.5420 ha        1 EUD      0.112000
@<TRIPOS>BOND
     1    1    2 1   
     2    1   12 1   
     3    1   16 1   
     4    1   17 1   
     5    2    3 1   
     6    2    8 1   
     7    2   18 1   
     8    3    4 1   
     9    3    5 1   
    10    3   19 1   
    11    4   20 1   
    12    4   21 1   
    13    4   22 1   
    14    5    6 1   
    15    5   23 1   
    16    5   24 1   
    17    6    7 1   
    18    6   25 1   
    19    6   26 1   
    20    7    8 1   
    21    7   27 1   
    22    7   28 1   
    23    8    9 1   
    24    8   10 1   
    25    9   29 1   
    26    9   30 1   
    27    9   31 1   
    28   10   11 1   
    29   10   32 1   
    30   10   33 1   
    31   11   12 1   
    32   11   34 1   
    33   11   35 1   
    34   12   13 1   
    35   12   36 1   
    36   13   14 1   
    37   13   15 2   
    38   14   37 1   
    39   14   38 1   
    40   14   39 1   
    41   15   40 1   
    42   15   41 1   
@<TRIPOS>SUBSTRUCTURE
     1 EUD         1 TEMP              0 ****  ****    0 ROOT
