@<TRIPOS>MOLECULE
molecule
   24    24     1     0     0
SMALL
bcc


@<TRIPOS>ATOM
      1 C1           0.0000     0.0000     0.0000 ca         1 EUG      -0.023800
      2 C2           1.3950     0.0000     0.0000 ca         1 EUG      -0.203000
      3 C3           2.0840     0.0000     1.1990 ca         1 EUG       0.126100
      4 C4           1.3840     0.0010     2.4040 ca         1 EUG       0.076100
      5 C5          -0.0030    -0.0000     2.4030 ca         1 EUG      -0.129000
      6 C6          -0.6950     0.0010     1.2090 ca         1 EUG      -0.149000
      7 C7          -0.7400     0.0060    -1.2790 ce         1 EUG      -0.129200
      8 C8          -2.0660     0.0070    -1.2780 c2         1 EUG      -0.159200
      9 C9           4.0970    -0.0010    -0.0690 c3         1 EUG       0.125700
     10 O3           3.4440    -0.0010     1.2030 os         1 EUG      -0.314900
     11 O4           2.0620     0.0010     3.5820 oh         1 EUG      -0.504100
     12 C10         -2.8210     0.0120    -2.5820 c3         1 EUG      -0.061900
     13 H2           1.9380    -0.0010    -0.9380 ha         1 EUG       0.140000
     14 H5          -0.5440     0.0010     3.3420 ha         1 EUG       0.142000
     15 H6          -1.7780     0.0010     1.2120 ha         1 EUG       0.136000
     16 H7          -0.1990     0.0090    -2.2180 ha         1 EUG       0.130000
     17 H81         -2.6070     0.0030    -0.3400 ha         1 EUG       0.128000
     18 H91          3.8060    -0.8850    -0.6230 h1         1 EUG       0.041367
     19 H92          5.1700    -0.0020     0.0770 h1         1 EUG       0.041367
     20 H93          3.8080     0.8840    -0.6230 h1         1 EUG       0.041367
     21 HO4          2.0020     0.8540     3.9800 ho         1 EUG       0.414000
     22 H10         -2.5600    -0.8700    -3.1540 hc         1 EUG       0.043367
     23 H11         -3.8850     0.0120    -2.3830 hc         1 EUG       0.043367
     24 H12         -2.5590     0.8990    -3.1470 hc         1 EUG       0.043367
@<TRIPOS>BOND
     1     1     2 ar
     2     1     6 ar
     3     1     7 1
     4     2     3 ar
     5     3     4 ar
     6     3    10 1
     7     4     5 ar
     8     4    11 1
     9     5     6 ar
    10     7     8 2
    11     9    10 1
    12     8    12 1
    13     2    13 1
    14     5    14 1
    15     6    15 1
    16     7    16 1
    17     8    17 1
    18     9    18 1
    19     9    19 1
    20     9    20 1
    21    11    21 1
    22    12    22 1
    23    12    23 1
    24    12    24 1
@<TRIPOS>SUBSTRUCTURE
     1 EUG         1 TEMP              0 ****  ****    0 ROOT
