@<TRIPOS>MOLECULE
EUG
   24    24     1     0     0
SMALL
bcc


@<TRIPOS>ATOM
      1 C1         -0.1160    0.5960   -0.1550 ca        1 EUG     -0.056800
      2 C2          1.2870    0.5560   -0.0830 ca        1 EUG     -0.154000
      3 C3          1.9090    0.0270    1.0450 ca        1 EUG      0.042100
      4 C4          1.1340   -0.4600    2.1250 ca        1 EUG      0.112100
      5 C5         -0.2620   -0.4060    2.0540 ca        1 EUG     -0.139000
      6 C6         -0.8750    0.1180    0.9190 ca        1 EUG     -0.116000
      7 C7         -0.7380    1.1700   -1.3390 ce        1 EUG     -0.124200
      8 C8         -1.8190    0.7100   -1.9800 c2        1 EUG     -0.150200
      9 C9          4.0840    0.3420    0.1290 c3        1 EUG      0.121700
     10 O3          3.2800   -0.0660    1.2290 os        1 EUG     -0.349900
     11 O4          1.6900   -0.9890    3.2650 oh        1 EUG     -0.495100
     12 C10        -2.6010   -0.4910   -1.6350 c3        1 EUG     -0.070900
     13 H2          1.8820    0.9410   -0.9240 ha        1 EUG      0.139000
     14 H5         -0.8570   -0.7800    2.8990 ha        1 EUG      0.152000
     15 H6         -1.9740    0.1650    0.8710 ha        1 EUG      0.140000
     16 H7         -0.2270    2.0720   -1.7230 ha        1 EUG      0.123000
     17 H81        -2.1870    1.2580   -2.8670 ha        1 EUG      0.118000
     18 H91         3.8510   -0.2660   -0.7780 h1        1 EUG      0.045700
     19 H92         5.1280    0.1430    0.4830 h1        1 EUG      0.045700
     20 H93         3.9390    1.4300   -0.0800 h1        1 EUG      0.045700
     21 HO4         2.6540   -0.9670    3.1690 ho        1 EUG      0.436000
     22 H10        -2.0100   -1.2040   -1.0070 hc        1 EUG      0.045367
     23 H11        -2.9250   -1.0230   -2.5640 hc        1 EUG      0.045367
     24 H12        -3.5190   -0.1990   -1.0640 hc        1 EUG      0.045367
@<TRIPOS>BOND
     1    1    2 ar  
     2    1    6 ar  
     3    1    7 1   
     4    2    3 ar  
     5    2   13 1   
     6    3    4 ar  
     7    3   10 1   
     8    4    5 ar  
     9    4   11 1   
    10    5    6 ar  
    11    5   14 1   
    12    6   15 1   
    13    7    8 2   
    14    7   16 1   
    15    8   12 1   
    16    8   17 1   
    17    9   10 1   
    18    9   18 1   
    19    9   19 1   
    20    9   20 1   
    21   11   21 1   
    22   12   22 1   
    23   12   23 1   
    24   12   24 1   
@<TRIPOS>SUBSTRUCTURE
     1 EUG         1 TEMP              0 ****  ****    0 ROOT
