@<TRIPOS>MOLECULE
molecule
   51    54     1     0     0
SMALL
bcc


@<TRIPOS>ATOM
      1 O20          0.0000     0.0000     0.0000 o          1 EUI      -0.580100
      2 C18          1.2170     0.0000     0.0000 c          1 EUI       0.711700
      3 C15          1.9540     0.0000     1.2750 ca         1 EUI      -0.144600
      4 C14          3.3450     0.1400     1.2830 ca         1 EUI      -0.098000
      5 C13          4.0300     0.1410     2.4770 ca         1 EUI      -0.160000
      6 C12          3.3460     0.0020     3.6780 ca         1 EUI       0.126900
      7 F17          4.0290     0.0040     4.8440 f          1 EUI      -0.119900
      8 C11          1.9690    -0.1370     3.6870 ca         1 EUI       0.075900
      9 F16          1.3120    -0.2720     4.8590 f          1 EUI      -0.113900
     10 C10          1.2620    -0.1350     2.4900 ca         1 EUI       0.188600
     11 N9          -0.1210    -0.2690     2.4950 nu         1 EUI      -0.677000
     12 C5          -0.7080    -1.4750     2.0970 ca         1 EUI       0.210600
     13 C4           0.0900    -2.5520     1.7380 ca         1 EUI      -0.183000
     14 C3          -0.4920    -3.7430     1.3470 ca         1 EUI      -0.066000
     15 C2          -1.8690    -3.8620     1.3120 ca         1 EUI       0.023900
     16 I8          -2.7470    -5.6700     0.7170 i          1 EUI      -0.172900
     17 C6          -2.0930    -1.6000     2.0670 ca         1 EUI       0.071900
     18 F7          -2.8740    -0.5550     2.4200 f          1 EUI      -0.141900
     19 C1          -2.6700    -2.7920     1.6690 ca         1 EUI      -0.094000
     20 N19          1.8900    -0.0070    -1.1670 nj         1 EUI      -0.515800
     21 C23          1.5400     0.0910    -2.5930 cy         1 EUI       0.079000
     22 C22          2.8120    -0.7100    -2.9040 cy         1 EUI       0.114800
     23 C21          3.2990    -0.1070    -1.5770 cy         1 EUI       0.079000
     24 O24          2.6320    -2.1270    -2.8780 oh         1 EUI      -0.554800
     25 C25          3.5790    -0.2180    -4.1330 c3         1 EUI       0.164500
     26 C30          2.6770    -0.3080    -5.3660 c3         1 EUI      -0.076400
     27 C29          3.4560     0.1670    -6.5970 c3         1 EUI      -0.080400
     28 C28          4.7160    -0.6870    -6.7550 c3         1 EUI      -0.079400
     29 C27          5.5580    -0.5860    -5.4810 c3         1 EUI       0.158800
     30 N26          4.7700    -1.0520    -4.3340 n7         1 EUI      -0.797200
     31 H14          3.8840     0.2490     0.3500 ha         1 EUI       0.155000
     32 H13          5.1080     0.2500     2.4800 ha         1 EUI       0.157000
     33 H9          -0.6950     0.4850     2.8150 hn         1 EUI       0.471800
     34 H4           1.1690    -2.4600     1.7650 ha         1 EUI       0.143000
     35 H3           0.1310    -4.5830     1.0660 ha         1 EUI       0.144000
     36 H1          -3.7490    -2.8900     1.6420 ha         1 EUI       0.155000
     37 H231         1.5790     1.1070    -2.9680 h1         1 EUI       0.068700
     38 H232         0.6320    -0.4450    -2.8420 h1         1 EUI       0.068700
     39 H211         3.7720     0.8590    -1.7010 h1         1 EUI       0.068700
     40 H212         3.8640    -0.8100    -0.9760 h1         1 EUI       0.068700
     41 H24          1.7710    -2.3410    -3.1970 ho         1 EUI       0.413000
     42 H25          3.8830     0.8120    -3.9850 h1         1 EUI       0.024700
     43 H301         2.3660    -1.3350    -5.5110 hc         1 EUI       0.050700
     44 H302         1.8080     0.3230    -5.2240 hc         1 EUI       0.050700
     45 H26          5.3360    -1.0300    -3.5090 hn         1 EUI       0.354800
     46 H291         3.7370     1.2050    -6.4680 hc         1 EUI       0.042200
     47 H292         2.8360     0.0610    -7.4790 hc         1 EUI       0.042200
     48 H281         4.4340    -1.7200    -6.9190 hc         1 EUI       0.051700
     49 H282         5.2930    -0.3260    -7.5980 hc         1 EUI       0.051700
     50 H271         5.8480     0.4460    -5.3230 h1         1 EUI       0.031700
     51 H272         6.4420    -1.2030    -5.5850 h1         1 EUI       0.031700
@<TRIPOS>BOND
     1     1     2 2
     2     2     3 1
     3     2    20 1
     4     3     4 ar
     5     3    10 ar
     6     4     5 ar
     7     5     6 ar
     8     6     7 1
     9     6     8 ar
    10     8     9 1
    11     8    10 ar
    12    10    11 1
    13    11    12 1
    14    12    13 ar
    15    12    17 ar
    16    13    14 ar
    17    14    15 ar
    18    15    16 1
    19    15    19 ar
    20    17    18 1
    21    17    19 ar
    22    20    21 1
    23    20    23 1
    24    21    22 1
    25    22    23 1
    26    22    24 1
    27    22    25 1
    28    25    26 1
    29    25    30 1
    30    26    27 1
    31    27    28 1
    32    28    29 1
    33    29    30 1
    34     4    31 1
    35     5    32 1
    36    11    33 1
    37    13    34 1
    38    14    35 1
    39    19    36 1
    40    21    37 1
    41    21    38 1
    42    23    39 1
    43    23    40 1
    44    24    41 1
    45    25    42 1
    46    26    43 1
    47    26    44 1
    48    30    45 1
    49    27    46 1
    50    27    47 1
    51    28    48 1
    52    28    49 1
    53    29    50 1
    54    29    51 1
@<TRIPOS>SUBSTRUCTURE
     1 EUI         1 TEMP              0 ****  ****    0 ROOT
