@<TRIPOS>MOLECULE
EUI
   51    54     1     0     0
SMALL
bcc


@<TRIPOS>ATOM
      1 O20          0.0000     0.0000     0.0000 o          1 EUI      -0.633100
      2 C18          1.2170     0.0000     0.0000 c          1 EUI       0.649700
      3 C15          1.9540     0.0000     1.2750 ca         1 EUI      -0.146600
      4 C14          3.3450     0.1400     1.2830 ca         1 EUI      -0.090000
      5 C13          4.0300     0.1410     2.4770 ca         1 EUI      -0.117000
      6 C12          3.3460     0.0020     3.6780 ca         1 EUI       0.109900
      7 F17          4.0290     0.0040     4.8440 f          1 EUI      -0.111900
      8 C11          1.9690    -0.1370     3.6870 ca         1 EUI       0.061900
      9 F16          1.3120    -0.2720     4.8590 f          1 EUI      -0.106900
     10 C10          1.2620    -0.1350     2.4900 ca         1 EUI       0.056600
     11 N9          -0.1210    -0.2690     2.4950 nu         1 EUI      -0.223000
     12 C5          -0.7080    -1.4750     2.0970 ca         1 EUI       0.060600
     13 C4           0.0900    -2.5520     1.7380 ca         1 EUI      -0.165000
     14 C3          -0.4920    -3.7430     1.3470 ca         1 EUI      -0.046000
     15 C2          -1.8690    -3.8620     1.3120 ca         1 EUI       0.171900
     16 I8          -2.7470    -5.6700     0.7170 i          1 EUI      -0.299900
     17 C6          -2.0930    -1.6000     2.0670 ca         1 EUI       0.047900
     18 F7          -2.8740    -0.5550     2.4200 f          1 EUI      -0.126900
     19 C1          -2.6700    -2.7920     1.6690 ca         1 EUI      -0.070000
     20 N19          1.8900    -0.0070    -1.1670 nj         1 EUI      -0.181800
     21 C23          1.5400     0.0910    -2.5930 cy         1 EUI       0.025500
     22 C22          2.8120    -0.7100    -2.9040 cy         1 EUI       0.129800
     23 C21          3.2990    -0.1070    -1.5770 cy         1 EUI       0.025500
     24 O24          2.6320    -2.1270    -2.8780 oh         1 EUI      -0.540800
     25 C25          3.5790    -0.2180    -4.1330 c3         1 EUI       0.117500
     26 C30          2.6770    -0.3080    -5.3660 c3         1 EUI      -0.028400
     27 C29          3.4560     0.1670    -6.5970 c3         1 EUI      -0.023400
     28 C28          4.7160    -0.6870    -6.7550 c3         1 EUI      -0.025400
     29 C27          5.5580    -0.5860    -5.4810 c3         1 EUI       0.145800
     30 N26          4.7700    -1.0520    -4.3340 n7         1 EUI      -0.555200
     31 H14          3.8840     0.2490     0.3500 ha         1 EUI       0.134000
     32 H13          5.1080     0.2500     2.4800 ha         1 EUI       0.127000
     33 H9          -0.6950     0.4850     2.8150 hn         1 EUI       0.307800
     34 H4           1.1690    -2.4600     1.7650 ha         1 EUI       0.120000
     35 H3           0.1310    -4.5830     1.0660 ha         1 EUI       0.116000
     36 H1          -3.7490    -2.8900     1.6420 ha         1 EUI       0.129000
     37 H231         1.5790     1.1070    -2.9680 h1         1 EUI       0.040450
     38 H232         0.6320    -0.4450    -2.8420 h1         1 EUI       0.040450
     39 H211         3.7720     0.8590    -1.7010 h1         1 EUI       0.040450
     40 H212         3.8640    -0.8100    -0.9760 h1         1 EUI       0.040450
     41 H24          1.7710    -2.3410    -3.1970 ho         1 EUI       0.402000
     42 H25          3.8830     0.8120    -3.9850 h1         1 EUI       0.011700
     43 H301         2.3660    -1.3350    -5.5110 hc         1 EUI       0.023200
     44 H302         1.8080     0.3230    -5.2240 hc         1 EUI       0.023200
     45 H26          5.3360    -1.0300    -3.5090 hn         1 EUI       0.251800
     46 H291         3.7370     1.2050    -6.4680 hc         1 EUI       0.013700
     47 H292         2.8360     0.0610    -7.4790 hc         1 EUI       0.013700
     48 H281         4.4340    -1.7200    -6.9190 hc         1 EUI       0.022200
     49 H282         5.2930    -0.3260    -7.5980 hc         1 EUI       0.022200
     50 H271         5.8480     0.4460    -5.3230 h1         1 EUI       0.005200
     51 H272         6.4420    -1.2030    -5.5850 h1         1 EUI       0.005200
@<TRIPOS>BOND
     1     1     2 2   
     2     2     3 1   
     3     2    20 1   
     4     3     4 ar  
     5     3    10 ar  
     6     4     5 ar  
     7     4    31 1   
     8     5     6 ar  
     9     5    32 1   
    10     6     7 1   
    11     6     8 ar  
    12     8     9 1   
    13     8    10 ar  
    14    10    11 1   
    15    11    12 1   
    16    11    33 1   
    17    12    13 ar  
    18    12    17 ar  
    19    13    14 ar  
    20    13    34 1   
    21    14    15 ar  
    22    14    35 1   
    23    15    16 1   
    24    15    19 ar  
    25    17    18 1   
    26    17    19 ar  
    27    19    36 1   
    28    20    21 1   
    29    20    23 1   
    30    21    22 1   
    31    21    37 1   
    32    21    38 1   
    33    22    23 1   
    34    22    24 1   
    35    22    25 1   
    36    23    39 1   
    37    23    40 1   
    38    24    41 1   
    39    25    26 1   
    40    25    30 1   
    41    25    42 1   
    42    26    27 1   
    43    26    43 1   
    44    26    44 1   
    45    27    28 1   
    46    27    46 1   
    47    27    47 1   
    48    28    29 1   
    49    28    48 1   
    50    28    49 1   
    51    29    30 1   
    52    29    50 1   
    53    29    51 1   
    54    30    45 1   
@<TRIPOS>SUBSTRUCTURE
     1 EUI         1 TEMP              0 ****  ****    0 ROOT
