@<TRIPOS>MOLECULE
EUN
   38    41     1     0     0
SMALL
bcc


@<TRIPOS>ATOM
      1 C21          0.0000     0.0000     0.0000 c3         1 EUN       0.024200
      2 C20          1.5070     0.0000     0.0000 ca         1 EUN       0.023700
      3 C10          1.4740    -0.0110    -2.4850 cp         1 EUN       0.021000
      4 C11          1.5490    -1.0950    -3.3510 ca         1 EUN      -0.219300
      5 C12          0.8420    -1.0710    -4.5460 ca         1 EUN       0.410200
      6 C14         -0.0230     1.0310    -4.1070 ca         1 EUN       0.374600
      7 C15         -0.8270     2.1190    -4.4920 ca         1 EUN      -0.140300
      8 C16         -0.9300     3.2030    -3.6760 ca         1 EUN      -0.094000
      9 C19          0.6650     1.0880    -2.8710 ca         1 EUN      -0.138300
     10 C17         -0.2530     3.2550    -2.4600 ca         1 EUN      -0.096000
     11 C18          0.5340     2.2190    -2.0550 ca         1 EUN      -0.092000
     12 C02          3.6540    -0.0020     3.5100 cc         1 EUN       0.289900
     13 C04          1.5250    -0.0010     2.5010 c          1 EUN       0.621100
     14 C05          2.2100     0.0000     1.1990 ca         1 EUN      -0.222600
     15 C06          3.6240    -0.0000     1.1930 ca         1 EUN       0.165400
     16 C07          4.3070    -0.0000    -0.0270 ca         1 EUN      -0.109000
     17 C08          3.6100     0.0010    -1.1990 ca         1 EUN      -0.042000
     18 C09          2.2090    -0.0060    -1.2010 cp         1 EUN      -0.080000
     19 N03          2.3000    -0.0010     3.6120 ns         1 EUN      -0.009400
     20 N13          0.0970    -0.0460    -4.8890 nb         1 EUN      -0.571000
     21 N22          4.2860    -0.0020     2.3750 nd         1 EUN      -0.540100
     22 O23          0.3100    -0.0010     2.5780 o          1 EUN      -0.664500
     23 H213        -0.3610    -0.1460    -1.0110 hc         1 EUN       0.031033
     24 H211        -0.3610     0.9490     0.3790 hc         1 EUN       0.031033
     25 H212        -0.3610    -0.8020     0.6320 hc         1 EUN       0.031033
     26 H111         2.1560    -1.9550    -3.0950 ha         1 EUN       0.118000
     27 H121         0.9070    -1.9220    -5.2140 h4         1 EUN      -0.021900
     28 H151        -1.3600     2.0940    -5.4350 ha         1 EUN       0.118000
     29 H161        -1.5500     4.0390    -3.9760 ha         1 EUN       0.103000
     30 H171        -0.3520     4.1300    -1.8290 ha         1 EUN       0.103000
     31 H181         1.0560     2.2700    -1.1070 ha         1 EUN       0.120000
     32 H013         4.2310    -0.8880     5.3590 hc         1 EUN       0.024033
     33 H011         5.5210    -0.0020     4.5350 hc         1 EUN       0.024033
     34 H012         4.2290     0.8810     5.3610 hc         1 EUN       0.024033
     35 H071         5.3910     0.0050    -0.0410 ha         1 EUN       0.122000
     36 H081         4.1470    -0.0030    -2.1410 ha         1 EUN       0.109000
     37 H031         1.8700    -0.0010     4.5160 hn         1 EUN       0.182500
     38 C01          4.4660    -0.0030     4.7810 c3         1 EUN      -0.029400
@<TRIPOS>BOND
     1     1     2 1   
     2     1    23 1   
     3     1    24 1   
     4     1    25 1   
     5     2    14 ar  
     6     2    18 ar  
     7     3     4 ar  
     8     3     9 ar  
     9     3    18 1   
    10     4     5 ar  
    11     4    26 1   
    12     5    20 ar  
    13     5    27 1   
    14     6     7 ar  
    15     6     9 ar  
    16     6    20 ar  
    17     7     8 ar  
    18     7    28 1   
    19     8    10 ar  
    20     8    29 1   
    21     9    11 ar  
    22    10    11 ar  
    23    10    30 1   
    24    11    31 1   
    25    12    19 1   
    26    12    21 2   
    27    12    38 1   
    28    13    14 1   
    29    13    19 1   
    30    13    22 2   
    31    14    15 ar  
    32    15    16 ar  
    33    15    21 1   
    34    16    17 ar  
    35    16    35 1   
    36    17    18 ar  
    37    17    36 1   
    38    19    37 1   
    39    32    38 1   
    40    33    38 1   
    41    34    38 1   
@<TRIPOS>SUBSTRUCTURE
     1 EUN         1 TEMP              0 ****  ****    0 ROOT
