@<TRIPOS>MOLECULE
molecule
   38    41     1     0     0
SMALL
bcc


@<TRIPOS>ATOM
      1 C21          0.0000     0.0000     0.0000 c3         1 EUN      -0.056800
      2 C20          1.5070     0.0000     0.0000 ca         1 EUN       0.015700
      3 C10          1.4740    -0.0110    -2.4850 cp         1 EUN       0.017000
      4 C11          1.5490    -1.0950    -3.3510 ca         1 EUN      -0.249300
      5 C12          0.8420    -1.0710    -4.5460 ca         1 EUN       0.431200
      6 C14         -0.0230     1.0310    -4.1070 ca         1 EUN       0.420600
      7 C15         -0.8270     2.1190    -4.4920 ca         1 EUN      -0.165300
      8 C16         -0.9300     3.2030    -3.6760 ca         1 EUN      -0.119000
      9 C19          0.6650     1.0880    -2.8710 ca         1 EUN      -0.146300
     10 C17         -0.2530     3.2550    -2.4600 ca         1 EUN      -0.128000
     11 C18          0.5340     2.2190    -2.0550 ca         1 EUN      -0.108000
     12 C02          3.6540    -0.0020     3.5100 cc         1 EUN       0.499900
     13 C04          1.5250    -0.0010     2.5010 c          1 EUN       0.709100
     14 C05          2.2100     0.0000     1.1990 ca         1 EUN      -0.215600
     15 C06          3.6240    -0.0000     1.1930 ca         1 EUN       0.209400
     16 C07          4.3070    -0.0000    -0.0270 ca         1 EUN      -0.132000
     17 C08          3.6100     0.0010    -1.1990 ca         1 EUN      -0.070000
     18 C09          2.2090    -0.0060    -1.2010 cp         1 EUN      -0.084000
     19 N03          2.3000    -0.0010     3.6120 ns         1 EUN      -0.472400
     20 N13          0.0970    -0.0460    -4.8890 nb         1 EUN      -0.683000
     21 N22          4.2860    -0.0020     2.3750 nd         1 EUN      -0.651100
     22 O23          0.3100    -0.0010     2.5780 o          1 EUN      -0.623500
     23 H213        -0.3610    -0.1460    -1.0110 hc         1 EUN       0.061033
     24 H211        -0.3610     0.9490     0.3790 hc         1 EUN       0.061033
     25 H212        -0.3610    -0.8020     0.6320 hc         1 EUN       0.061033
     26 H111         2.1560    -1.9550    -3.0950 ha         1 EUN       0.142000
     27 H121         0.9070    -1.9220    -5.2140 h4         1 EUN       0.023100
     28 H151        -1.3600     2.0940    -5.4350 ha         1 EUN       0.149000
     29 H161        -1.5500     4.0390    -3.9760 ha         1 EUN       0.133000
     30 H171        -0.3520     4.1300    -1.8290 ha         1 EUN       0.132000
     31 H181         1.0560     2.2700    -1.1070 ha         1 EUN       0.143000
     32 H013         4.2310    -0.8880     5.3590 hc         1 EUN       0.066367
     33 H011         5.5210    -0.0020     4.5350 hc         1 EUN       0.066367
     34 H012         4.2290     0.8810     5.3610 hc         1 EUN       0.066367
     35 H071         5.3910     0.0050    -0.0410 ha         1 EUN       0.152000
     36 H081         4.1470    -0.0030    -2.1410 ha         1 EUN       0.142000
     37 H031         1.8700    -0.0010     4.5160 hn         1 EUN       0.337500
     38 C01          4.4660    -0.0030     4.7810 c3         1 EUN      -0.133400
@<TRIPOS>BOND
     1    38    12 1
     2    19    12 1
     3    19    13 1
     4    12    21 2
     5    22    13 2
     6    13    14 1
     7    21    15 1
     8    15    14 ar
     9    15    16 ar
    10    14     2 ar
    11    16    17 ar
    12     2     1 1
    13     2    18 ar
    14    17    18 ar
    15     4     5 ar
    16     4     3 ar
    17    18     3 1
    18     5    20 ar
    19     3     9 ar
    20    20     6 ar
    21     9     6 ar
    22     9    11 ar
    23     6     7 ar
    24    11    10 ar
    25     7     8 ar
    26    10     8 ar
    27     1    23 1
    28     1    24 1
    29     1    25 1
    30     4    26 1
    31     5    27 1
    32     7    28 1
    33     8    29 1
    34    10    30 1
    35    11    31 1
    36    38    32 1
    37    38    33 1
    38    38    34 1
    39    16    35 1
    40    17    36 1
    41    19    37 1
@<TRIPOS>SUBSTRUCTURE
     1 EUN         1 TEMP              0 ****  ****    0 ROOT
