@<TRIPOS>MOLECULE
EUR
   42    45     1     0     0
SMALL
bcc


@<TRIPOS>ATOM
      1 O01          0.0000     0.0000     0.0000 oh         1 EUR      -0.385000
      2 C02          1.4290     0.0000     0.0000 c3         1 EUR       0.182000
      3 C03          1.9310     0.0000     1.4220 c2         1 EUR      -0.192000
      4 N04          3.1890     0.0010     1.7810 n2         1 EUR      -0.097000
      5 C05          3.2770     0.0000     3.1120 c2         1 EUR      -0.093000
      6 Cl1          4.7430     0.0020     4.0420 cl         1 EUR       0.148000
      7 C07          2.0030    -0.0000     3.6140 c2         1 EUR      -0.447000
      8 N08          1.1560     0.0060     2.5200 na         1 EUR       0.408000
      9 C09          1.6150    -0.0000     5.0280 c2         1 EUR       0.337000
     10 O10          2.4700    -0.0000     5.8940 o          1 EUR      -0.362000
     11 N11          0.3100    -0.0020     5.3680 ns         1 EUR       0.007000
     12 C12         -0.0770    -0.0020     6.7810 c3         1 EUR      -0.309000
     13 C13         -1.5810    -0.0040     6.8890 c3         1 EUR      -0.047000
     14 C14         -2.2560     1.1750     7.1460 c2         1 EUR      -0.080000
     15 C15         -3.6340     1.1780     7.2470 c2         1 EUR      -0.073000
     16 C16         -4.3430     0.0010     7.0890 c2         1 EUR      -0.118000
     17 Cl2         -6.0750     0.0060     7.2150 cl         1 EUR       0.110000
     18 C18         -3.6700    -1.1840     6.8310 c2         1 EUR       0.041000
     19 O19         -4.3640    -2.3430     6.6760 os         1 EUR      -0.107000
     20 C20         -4.7740    -2.6780     5.4250 ca         1 EUR       0.159000
     21 C21         -4.4830    -1.8450     4.3520 ca         1 EUR      -0.200000
     22 C22         -4.8990    -2.1810     3.0760 ca         1 EUR      -0.081000
     23 Cl3         -4.5290    -1.1340     1.7420 cl         1 EUR       0.070000
     24 C24         -5.6070    -3.3470     2.8610 ca         1 EUR      -0.118000
     25 C25         -5.9050    -4.1900     3.9340 ca         1 EUR       0.056000
     26 C28         -5.4800    -3.8520     5.2190 ca         1 EUR      -0.114000
     27 C26         -6.6390    -5.3990     3.7140 c1         1 EUR      -0.110000
     28 N27         -7.2390    -6.3490     3.5460 n1         1 EUR      -0.032000
     29 C29         -2.2840    -1.1830     6.7250 c2         1 EUR       0.039000
     30 F30         -1.6250    -2.3340     6.4680 f          1 EUR      -0.068000
     31 H01         -0.5390     0.0180    -0.7740 ho         1 EUR       0.229000
     32 H021         1.9560     0.6040    -0.7290 h1         1 EUR       0.047000
     33 H022         1.6540    -1.0280    -0.2560 h1         1 EUR       0.047000
     34 H08          0.2700     0.1380     2.9650 hn         1 EUR       0.100000
     35 H11         -0.3210     0.7370     5.1270 hn         1 EUR       0.079000
     36 H121         0.7650     0.0520     7.4590 h1         1 EUR       0.186000
     37 H122        -0.7950    -0.7430     7.1110 DU         1 EUR       0.116000
     38 H14         -1.5670     1.9550     6.8440 ha         1 EUR       0.134000
     39 H15         -4.1320     2.1170     7.4550 ha         1 EUR       0.125000
     40 H21         -3.8060    -1.0220     4.1560 ha         1 EUR       0.143000
     41 H28         -5.8330    -4.6550     5.8550 ha         1 EUR       0.138000
     42 H24         -5.5890    -3.9500     1.9600 ha         1 EUR       0.131000
@<TRIPOS>BOND
     1     1     2 1   
     2     1    31 1   
     3     2     3 1   
     4     2    32 1   
     5     2    33 1   
     6     3     4 1   
     7     3     8 1   
     8     4     5 1   
     9     5     6 1   
    10     5     7 1   
    11     7     8 1   
    12     7     9 1   
    13     8    34 1   
    14     9    10 1   
    15     9    11 1   
    16    11    12 1   
    17    11    35 1   
    18    12    13 1   
    19    12    36 1   
    20    12    37 1   
    21    13    14 1   
    22    13    29 1   
    23    13    37 1   
    24    14    15 1   
    25    14    38 1   
    26    15    16 1   
    27    15    39 1   
    28    16    17 1   
    29    16    18 1   
    30    18    19 1   
    31    18    29 1   
    32    19    20 1   
    33    20    21 1   
    34    20    26 1   
    35    21    22 1   
    36    21    40 1   
    37    22    23 1   
    38    22    24 1   
    39    24    25 1   
    40    24    42 1   
    41    25    26 1   
    42    25    27 1   
    43    26    41 1   
    44    27    28 1   
    45    29    30 1   
@<TRIPOS>SUBSTRUCTURE
     1 EUR         1 TEMP              0 ****  ****    0 ROOT
