@<TRIPOS>MOLECULE
molecule
   46    49     1     0     0
SMALL
bcc


@<TRIPOS>ATOM
      1 C1           0.0000     0.0000     0.0000 ca         1 EUT      -0.161500
      2 C2           2.0810     0.0000     1.2040 ca         1 EUT      -0.161500
      3 C3           0.0020    -0.0020     2.3980 ca         1 EUT      -0.199000
      4 C4           1.3890     0.0000     0.0000 ca         1 EUT       0.185600
      5 C5          -0.6910    -0.0020     1.1980 ca         1 EUT       0.164400
      6 C6           1.3870    -0.0010     2.4000 ca         1 EUT       0.164400
      7 C7           3.5570     3.5720    -2.5380 cc         1 EUT      -0.441200
      8 C8           2.5760     3.5030    -1.5590 cd         1 EUT       0.481600
      9 C9           4.0130     2.3830    -3.1120 c          1 EUT       0.716700
     10 C10          2.5610     1.1870    -1.7090 cc         1 EUT       0.763800
     11 C11          3.6410    -1.2670    -2.6240 c3         1 EUT      -0.119400
     12 C12          3.8620    -0.0050    -3.4320 c3         1 EUT       0.091000
     13 C13          1.6100     4.6770     0.4030 c3         1 EUT       0.205800
     14 C14          1.9920     5.9070    -1.7660 c3         1 EUT       0.205800
     15 C15          0.2090     5.2980     0.4360 c3         1 EUT       0.118400
     16 C16          0.5730     6.4690    -1.6280 c3         1 EUT       0.118400
     17 C17          2.2990    -1.2590    -1.9090 c3         1 EUT       0.203500
     18 C18          2.2590    -2.4060    -0.8990 c3         1 EUT       0.610900
     19 N19          2.1190     2.3090    -1.1700 nd         1 EUT      -0.757300
     20 N20          2.0890     0.0010    -1.2100 nh         1 EUT      -0.658000
     21 N21          2.0750     4.6570    -0.9930 nh         1 EUT      -0.717400
     22 N22          3.4710     1.2060    -2.7190 n          1 EUT      -0.379300
     23 O24          0.2360     6.5570    -0.2410 os         1 EUT      -0.420600
     24 F25         -2.0420    -0.0010     1.1990 f          1 EUT      -0.128400
     25 F26          2.0600    -0.0010     3.5710 f          1 EUT      -0.128400
     26 F27          3.2490    -2.2090     0.0700 f          1 EUT      -0.214300
     27 F28          1.0040    -2.4440    -0.2830 f          1 EUT      -0.214300
     28 F29          2.4910    -3.6180    -1.5610 f          1 EUT      -0.214300
     29 H1          -0.5420     0.0000    -0.9380 ha         1 EUT       0.161000
     30 H2           3.1640     0.0000     1.2060 ha         1 EUT       0.161000
     31 H3          -0.5410    -0.0030     3.3360 ha         1 EUT       0.164000
     32 H7           3.9420     4.5290    -2.8700 ha         1 EUT       0.169000
     33 H111         4.4300    -1.3540    -1.8860 hc         1 EUT       0.081700
     34 H112         3.6780    -2.1210    -3.2890 hc         1 EUT       0.081700
     35 H121         4.9140     0.0660    -3.6850 h1         1 EUT       0.080200
     36 H122         3.2830    -0.0720    -4.3450 h1         1 EUT       0.080200
     37 H17          1.5100    -1.3940    -2.6390 h1         1 EUT       0.087700
     38 H131         1.5680     3.6640     0.7860 h1         1 EUT       0.063450
     39 H132         2.2870     5.2720     1.0030 h1         1 EUT       0.063450
     40 H151        -0.4910     4.6370    -0.0600 h1         1 EUT       0.055950
     41 H152        -0.0940     5.4480     1.4650 h1         1 EUT       0.055950
     42 H141         2.2030     5.7030    -2.8090 h1         1 EUT       0.063450
     43 H142         2.7070     6.6230    -1.3780 h1         1 EUT       0.063450
     44 H161         0.5310     7.4560    -2.0730 h1         1 EUT       0.055950
     45 H162        -0.1270     5.8100    -2.1280 h1         1 EUT       0.055950
     46 O23          4.8910     2.4060    -3.9610 o          1 EUT      -0.657500
@<TRIPOS>BOND
     1     1     4 ar
     2     1     5 ar
     3     2     4 ar
     4     2     6 ar
     5     3     5 ar
     6     3     6 ar
     7     4    20 1
     8     5    24 1
     9     6    25 1
    10     7     8 2
    11     7     9 1
    12     8    19 1
    13     8    21 1
    14     9    22 1
    15     9    46 2
    16    10    19 2
    17    10    20 1
    18    10    22 1
    19    11    12 1
    20    11    17 1
    21    12    22 1
    22    13    15 1
    23    13    21 1
    24    14    16 1
    25    14    21 1
    26    15    23 1
    27    16    23 1
    28    17    18 1
    29    17    20 1
    30    18    26 1
    31    18    27 1
    32    18    28 1
    33     1    29 1
    34     2    30 1
    35     3    31 1
    36     7    32 1
    37    11    33 1
    38    11    34 1
    39    12    35 1
    40    12    36 1
    41    17    37 1
    42    13    38 1
    43    13    39 1
    44    15    40 1
    45    15    41 1
    46    14    42 1
    47    14    43 1
    48    16    44 1
    49    16    45 1
@<TRIPOS>SUBSTRUCTURE
     1 EUT         1 TEMP              0 ****  ****    0 ROOT
