@<TRIPOS>MOLECULE
molecule
   23    23     1     0     0
SMALL
bcc


@<TRIPOS>ATOM
      1 O11          0.0000     0.0000     0.0000 o          1 EV0      -0.547500
      2 C3           1.2200     0.0000     0.0000 c          1 EV0       0.680700
      3 C1           1.9370     0.0000     1.2100 cc         1 EV0      -0.201200
      4 N5           1.9070    -0.0070    -1.1630 ns         1 EV0      -0.451400
      5 C6           3.2680    -0.0070    -1.1420 cc         1 EV0       0.468800
      6 N7           3.9580    -0.0120    -2.3240 nz         1 EV0      -0.735600
      7 N4           3.9330    -0.0000    -0.0050 nd         1 EV0      -0.579300
      8 C2           3.3010     0.0000     1.1680 cd         1 EV0       0.174400
      9 C8           4.0930     0.0000     2.4490 c3         1 EV0      -0.034200
     10 C9           4.4680    -1.4370     2.8170 c3         1 EV0      -0.081400
     11 C10          5.2720    -1.4370     4.1200 c3         1 EV0      -0.091100
     12 H1           1.4150     0.0000     2.1590 ha         1 EV0       0.209000
     13 HN5          1.4180    -0.0120    -2.0350 hn         1 EV0       0.347500
     14 HN7          3.8880    -0.9170    -2.7470 hn         1 EV0       0.480800
     15 HN7A         4.9200     0.2000    -2.1500 hn         1 EV0       0.480800
     16 H8           3.4960     0.4320     3.2430 hc         1 EV0       0.080700
     17 H8A          4.9950     0.5860     2.3160 hc         1 EV0       0.080700
     18 H9           5.0660    -1.8680     2.0240 hc         1 EV0       0.048200
     19 H9A          3.5660    -2.0220     2.9500 hc         1 EV0       0.048200
     20 H10          4.6640    -1.0300     4.9190 hc         1 EV0       0.048033
     21 H10A         5.5610    -2.4510     4.3660 hc         1 EV0       0.048033
     22 H10B         6.1590    -0.8280     3.9960 hc         1 EV0       0.048033
     23 H73          3.5630     0.6660    -2.9450 hn         1 EV0       0.480800
@<TRIPOS>BOND
     1     1     2 2
     2     2     3 1
     3     2     4 1
     4     3     8 2
     5     4     5 1
     6     5     6 1
     7     5     7 2
     8     7     8 1
     9     8     9 1
    10     9    10 1
    11    10    11 1
    12     3    12 1
    13     4    13 1
    14     6    14 1
    15     6    15 1
    16     9    16 1
    17     9    17 1
    18    10    18 1
    19    10    19 1
    20    11    20 1
    21    11    21 1
    22    11    22 1
    23    23     6 1
@<TRIPOS>SUBSTRUCTURE
     1 EV0         1 TEMP              0 ****  ****    0 ROOT
