@<TRIPOS>MOLECULE
molecule
   46    48     1     0     0
SMALL
bcc


@<TRIPOS>ATOM
      1 C25          0.0000     0.0000     0.0000 c3         1 EV1       0.126700
      2 O24          1.4300     0.0000     0.0000 os         1 EV1      -0.314900
      3 C16          2.0470     0.0000     1.2110 ca         1 EV1       0.117100
      4 C15          3.4380     0.0000     1.2850 ca         1 EV1       0.116100
      5 O22          4.1800     0.0010     0.1450 os         1 EV1      -0.313900
      6 C23          5.6020     0.0010     0.2980 c3         1 EV1       0.127700
      7 C14          4.0620    -0.0000     2.5210 ca         1 EV1      -0.189000
      8 C13          3.3060    -0.0000     3.6780 ca         1 EV1      -0.126000
      9 C17          1.2950     0.0050     2.3740 ca         1 EV1      -0.172000
     10 C12          1.9250    -0.0010     3.6050 ca         1 EV1      -0.082300
     11 C11          1.1050    -0.0020     4.8700 c3         1 EV1      -0.076400
     12 C10          0.8310     1.4180     5.2910 ca         1 EV1       0.458600
     13 N9          -0.2420     2.0370     4.8570 nb         1 EV1      -0.701000
     14 C8          -0.5370     3.2860     5.1950 ca         1 EV1       0.416200
     15 C7           0.2640     4.0140     6.0210 ca         1 EV1      -0.244300
     16 C2           1.4330     3.4190     6.5280 ca         1 EV1       0.001000
     17 C3           1.7190     2.0790     6.1540 ca         1 EV1      -0.149300
     18 C4           2.8770     1.4560     6.6490 ca         1 EV1      -0.190000
     19 C5           3.7060     2.1440     7.4850 ca         1 EV1       0.130100
     20 O20          4.8270     1.5400     7.9630 os         1 EV1      -0.312900
     21 C21          5.0660     0.1940     7.5490 c3         1 EV1       0.126700
     22 C6           3.4190     3.4660     7.8580 ca         1 EV1       0.151100
     23 C1           2.3070     4.1020     7.3840 ca         1 EV1      -0.209000
     24 O18          4.2650     4.1260     8.6930 os         1 EV1      -0.311900
     25 C19          3.9200     5.4690     9.0360 c3         1 EV1       0.125700
     26 H251        -0.3610     0.9020     0.4800 h1         1 EV1       0.041700
     27 H252        -0.3610    -0.0350    -1.0210 h1         1 EV1       0.041700
     28 H253        -0.3610    -0.8660     0.5410 h1         1 EV1       0.041700
     29 H17          0.2130     0.0050     2.3190 ha         1 EV1       0.151000
     30 H14          5.1440    -0.0000     2.5810 ha         1 EV1       0.138000
     31 H231         6.0690     0.0020    -0.6790 h1         1 EV1       0.040033
     32 H232         5.9060     0.8850     0.8440 h1         1 EV1       0.040033
     33 H233         5.9060    -0.8840     0.8430 h1         1 EV1       0.040033
     34 H13          3.7960    -0.0030     4.6440 ha         1 EV1       0.126000
     35 H111         1.6510    -0.5130     5.6540 hc         1 EV1       0.062700
     36 H112         0.1670    -0.5130     4.6910 hc         1 EV1       0.062700
     37 H8          -1.4390     3.7390     4.8020 h4         1 EV1       0.019100
     38 H7           0.0040     5.0330     6.2840 ha         1 EV1       0.137000
     39 H1           2.0960     5.1230     7.6780 ha         1 EV1       0.148000
     40 H4           3.0410     0.4000     6.4710 ha         1 EV1       0.150000
     41 H211         5.9480    -0.1860     8.0490 h1         1 EV1       0.042367
     42 H212         5.2200     0.1690     6.4770 h1         1 EV1       0.042367
     43 H213         4.2110    -0.4200     7.8050 h1         1 EV1       0.042367
     44 H191         2.9540     5.4800     9.5260 h1         1 EV1       0.043367
     45 H192         3.8750     6.0720     8.1360 h1         1 EV1       0.043367
     46 H193         4.6690     5.8740     9.7050 h1         1 EV1       0.043367
@<TRIPOS>BOND
     1     1     2 1
     2     2     3 1
     3     3     4 ar
     4     3     9 ar
     5     4     5 1
     6     4     7 ar
     7     5     6 1
     8     7     8 ar
     9     8    10 ar
    10     9    10 ar
    11    10    11 1
    12    11    12 1
    13    12    13 ar
    14    12    17 ar
    15    13    14 ar
    16    14    15 ar
    17    15    16 ar
    18    16    17 ar
    19    16    23 ar
    20    17    18 ar
    21    18    19 ar
    22    19    20 1
    23    19    22 ar
    24    20    21 1
    25    22    23 ar
    26    22    24 1
    27    24    25 1
    28     1    26 1
    29     1    27 1
    30     1    28 1
    31     9    29 1
    32     7    30 1
    33     6    31 1
    34     6    32 1
    35     6    33 1
    36     8    34 1
    37    11    35 1
    38    11    36 1
    39    14    37 1
    40    15    38 1
    41    23    39 1
    42    18    40 1
    43    21    41 1
    44    21    42 1
    45    21    43 1
    46    25    44 1
    47    25    45 1
    48    25    46 1
@<TRIPOS>SUBSTRUCTURE
     1 EV1         1 TEMP              0 ****  ****    0 ROOT
