@<TRIPOS>MOLECULE
EV1
   46    48     1     0     0
SMALL
bcc


@<TRIPOS>ATOM
      1 C25         0.6500    1.5260    0.1980 c3        1 EV1      0.109700
      2 O24         1.9200    0.8840    0.2370 os        1 EV1     -0.305900
      3 C16         2.2770    0.3280    1.4480 ca        1 EV1      0.106100
      4 C15         3.5580   -0.2880    1.4800 ca        1 EV1      0.102100
      5 O22         4.2680   -0.2390    0.2970 os        1 EV1     -0.302900
      6 C23         5.5450   -0.8650    0.3120 c3        1 EV1      0.110700
      7 C14         4.0060   -0.8840    2.6580 ca        1 EV1     -0.180000
      8 C13         3.1990   -0.8680    3.7980 ca        1 EV1     -0.136000
      9 C17         1.4810    0.3330    2.5920 ca        1 EV1     -0.168000
     10 C12         1.9440   -0.2640    3.7740 ca        1 EV1     -0.075300
     11 C11         1.0710   -0.2900    4.9820 c3        1 EV1     -0.089400
     12 C10         0.6280    1.0860    5.4130 ca        1 EV1      0.441600
     13 N9         -0.6160    1.4690    5.1140 nb        1 EV1     -0.679000
     14 C8         -1.0410    2.6920    5.5410 ca        1 EV1      0.385200
     15 C7         -0.2620    3.5660    6.2790 ca        1 EV1     -0.233300
     16 C2          1.0650    3.1840    6.6030 ca        1 EV1     -0.001000
     17 C3          1.5370    1.9230    6.1560 ca        1 EV1     -0.138300
     18 C4          2.8740    1.5410    6.4490 ca        1 EV1     -0.172000
     19 C5          3.6950    2.3730    7.1760 ca        1 EV1      0.115100
     20 O20         5.0020    2.1040    7.5220 os        1 EV1     -0.301900
     21 C21         5.5370    0.8800    7.0300 c3        1 EV1      0.107700
     22 C6          3.2060    3.6450    7.6460 ca        1 EV1      0.137100
     23 C1          1.9190    4.0350    7.3570 ca        1 EV1     -0.202000
     24 O18         4.1210    4.3780    8.3680 os        1 EV1     -0.299900
     25 C19         3.6730    5.6460    8.8360 c3        1 EV1      0.107700
     26 H251        0.5860    1.9050   -0.8540 h1        1 EV1      0.045033
     27 H252       -0.1690    0.7950    0.4040 h1        1 EV1      0.045033
     28 H253        0.6120    2.3730    0.9250 h1        1 EV1      0.045033
     29 H17         0.4850    0.8010    2.5820 ha        1 EV1      0.156000
     30 H14         4.9910   -1.3690    2.7000 ha        1 EV1      0.138000
     31 H231        5.9220   -0.7080   -0.7310 h1        1 EV1      0.043033
     32 H232        6.2200   -0.3710    1.0530 h1        1 EV1      0.043033
     33 H233        5.4500   -1.9560    0.5360 h1        1 EV1      0.043033
     34 H13         3.5650   -1.3480    4.7180 ha        1 EV1      0.127000
     35 H111        1.6050   -0.7730    5.8450 hc        1 EV1      0.068200
     36 H112        0.1740   -0.9320    4.7520 hc        1 EV1      0.068200
     37 H8         -2.0790    2.9430    5.2560 h4        1 EV1      0.020100
     38 H7         -0.6510    4.5370    6.6120 ha        1 EV1      0.141000
     39 H1          1.5240    5.0040    7.6960 ha        1 EV1      0.145000
     40 H4          3.2460    0.5800    6.0630 ha        1 EV1      0.150000
     41 H211        6.5910    0.8910    7.4070 h1        1 EV1      0.046700
     42 H212        4.9780    0.0090    7.4500 h1        1 EV1      0.046700
     43 H213        5.5160    0.8580    5.9130 h1        1 EV1      0.046700
     44 H191        3.3990    6.3090    7.9800 h1        1 EV1      0.047033
     45 H192        2.8070    5.5260    9.5320 h1        1 EV1      0.047033
     46 H193        4.5650    6.0490    9.3800 h1        1 EV1      0.047033
@<TRIPOS>BOND
     1    1    2 1   
     2    1   26 1   
     3    1   27 1   
     4    1   28 1   
     5    2    3 1   
     6    3    4 ar  
     7    3    9 ar  
     8    4    5 1   
     9    4    7 ar  
    10    5    6 1   
    11    6   31 1   
    12    6   32 1   
    13    6   33 1   
    14    7    8 ar  
    15    7   30 1   
    16    8   10 ar  
    17    8   34 1   
    18    9   10 ar  
    19    9   29 1   
    20   10   11 1   
    21   11   12 1   
    22   11   35 1   
    23   11   36 1   
    24   12   13 ar  
    25   12   17 ar  
    26   13   14 ar  
    27   14   15 ar  
    28   14   37 1   
    29   15   16 ar  
    30   15   38 1   
    31   16   17 ar  
    32   16   23 ar  
    33   17   18 ar  
    34   18   19 ar  
    35   18   40 1   
    36   19   20 1   
    37   19   22 ar  
    38   20   21 1   
    39   21   41 1   
    40   21   42 1   
    41   21   43 1   
    42   22   23 ar  
    43   22   24 1   
    44   23   39 1   
    45   24   25 1   
    46   25   44 1   
    47   25   45 1   
    48   25   46 1   
@<TRIPOS>SUBSTRUCTURE
     1 EV1         1 TEMP              0 ****  ****    0 ROOT
