@<TRIPOS>MOLECULE
molecule
   30    32     1     0     0
SMALL
bcc


@<TRIPOS>ATOM
      1 N12          0.0000     0.0000     0.0000 nv         1 EV2      -0.991500
      2 C10          1.3870     0.0000     0.0000 ca         1 EV2       0.620900
      3 N8           2.0410     0.0000     1.1420 nb         1 EV2      -0.745000
      4 C6           3.3820    -0.0010     1.1420 ca         1 EV2       0.357300
      5 C4           4.1020    -0.0000     2.3480 ca         1 EV2      -0.181300
      6 C2           5.4640    -0.0020     2.3220 ca         1 EV2      -0.106000
      7 C9           2.0900    -0.0080    -1.2280 ca         1 EV2       0.437900
      8 N7           3.4070    -0.0080    -1.2420 nb         1 EV2      -0.658000
      9 C5           4.0850    -0.0020    -0.0860 ca         1 EV2       0.256300
     10 C3           5.4890    -0.0030    -0.0740 ca         1 EV2      -0.142300
     11 C1           6.1560    -0.0040     1.1140 ca         1 EV2      -0.146000
     12 N11          1.3890    -0.0140    -2.4240 nh         1 EV2      -0.705300
     13 C16          1.7030    -1.2210    -3.2180 c3         1 EV2       0.151300
     14 C14          1.6610    -0.8110    -4.7020 c3         1 EV2      -0.088900
     15 C13          1.3360     0.7000    -4.6940 c3         1 EV2      -0.088900
     16 C15          1.7750     1.1410    -3.2740 c3         1 EV2       0.151300
     17 HN12        -0.5000     0.1830    -0.8470 hn         1 EV2       0.448800
     18 HN1A        -0.5000    -0.1790     0.8480 hn         1 EV2       0.448800
     19 H4           3.5770     0.0010     3.2950 ha         1 EV2       0.148000
     20 H2           6.0160    -0.0020     3.2540 ha         1 EV2       0.132000
     21 H3           6.0400    -0.0050    -1.0070 ha         1 EV2       0.144000
     22 H1           7.2390    -0.0050     1.1180 ha         1 EV2       0.133000
     23 H16          0.9650    -1.9900    -3.0280 h1         1 EV2       0.055200
     24 H16A         2.6930    -1.5810    -2.9640 h1         1 EV2       0.055200
     25 H14          0.8820    -1.3590    -5.2190 hc         1 EV2       0.050450
     26 H14A         2.6240    -0.9850    -5.1660 hc         1 EV2       0.050450
     27 H13          0.2740     0.8630    -4.8330 hc         1 EV2       0.050450
     28 H13A         1.9140     1.2180    -5.4500 hc         1 EV2       0.050450
     29 H15          2.8460     1.2980    -3.2390 h1         1 EV2       0.055200
     30 H15A         1.2400     2.0330    -2.9710 h1         1 EV2       0.055200
@<TRIPOS>BOND
     1     1     2 1
     2     2     3 ar
     3     2     7 ar
     4     3     4 ar
     5     4     5 ar
     6     4     9 ar
     7     5     6 ar
     8     6    11 ar
     9     7     8 ar
    10     7    12 1
    11     8     9 ar
    12     9    10 ar
    13    10    11 ar
    14    12    13 1
    15    12    16 1
    16    13    14 1
    17    14    15 1
    18    15    16 1
    19     1    17 1
    20     1    18 1
    21     5    19 1
    22     6    20 1
    23    10    21 1
    24    11    22 1
    25    13    23 1
    26    13    24 1
    27    14    25 1
    28    14    26 1
    29    15    27 1
    30    15    28 1
    31    16    29 1
    32    16    30 1
@<TRIPOS>SUBSTRUCTURE
     1 EV2         1 TEMP              0 ****  ****    0 ROOT
