@<TRIPOS>MOLECULE
molecule
   27    28     1     0     0
SMALL
bcc


@<TRIPOS>ATOM
      1 C1           0.0000     0.0000     0.0000 ca         1 EV3       0.021400
      2 C2           1.3880     0.0000     0.0000 ca         1 EV3      -0.126000
      3 C3          -0.6990    -0.0010     1.1880 ca         1 EV3      -0.084000
      4 C4           2.0870     0.0000     1.1890 ca         1 EV3      -0.111000
      5 C5          -0.0050    -0.0000     2.4000 ca         1 EV3       0.139400
      6 C6           1.4000    -0.0000     2.3930 ca         1 EV3      -0.099200
      7 N7          -0.3980     0.0000     3.7010 nc         1 EV3      -0.670100
      8 C8           0.6550    -0.0000     4.4800 cd         1 EV3       0.682700
      9 N9           1.7910    -0.0010     3.7230 na         1 EV3      -0.187300
     10 N10          0.6220     0.0010     5.8580 nv         1 EV3      -0.966800
     11 C11          3.1690    -0.0020     4.2230 c3         1 EV3       0.053300
     12 C12          3.6490     1.4410     4.3980 c3         1 EV3      -0.108400
     13 C13          5.0870     1.4400     4.9200 c3         1 EV3       0.142400
     14 O14          5.5350     2.7870     5.0830 oh         1 EV3      -0.604800
     15 Cl15        -0.8620     0.0070    -1.5070 cl         1 EV3      -0.112400
     16 H2           1.9260     0.0000    -0.9400 ha         1 EV3       0.144000
     17 H3          -1.7820    -0.0010     1.1820 ha         1 EV3       0.155000
     18 H4           3.1700    -0.0000     1.1820 ha         1 EV3       0.129000
     19 HN10        -0.2560     0.0540     6.3360 hn         1 EV3       0.451300
     20 HN1A         1.4710    -0.0970     6.3790 hn         1 EV3       0.451300
     21 H11          3.2060    -0.5130     5.1780 h1         1 EV3       0.057700
     22 H11A         3.8100    -0.5130     3.5150 h1         1 EV3       0.057700
     23 H12          3.6110     1.9520     3.4430 hc         1 EV3       0.070700
     24 H12A         3.0080     1.9520     5.1060 hc         1 EV3       0.070700
     25 H13          5.7280     0.9300     4.2120 h1         1 EV3       0.019200
     26 H13A         5.1240     0.9290     5.8740 h1         1 EV3       0.019200
     27 HO14         6.4130     2.7870     5.4260 ho         1 EV3       0.406000
@<TRIPOS>BOND
     1     1     2 ar
     2     1     3 ar
     3     1    15 1
     4     2     4 ar
     5     3     5 ar
     6     4     6 ar
     7     5     6 ar
     8     5     7 1
     9     6     9 1
    10     7     8 2
    11     8     9 1
    12     8    10 1
    13     9    11 1
    14    11    12 1
    15    12    13 1
    16    13    14 1
    17     2    16 1
    18     3    17 1
    19     4    18 1
    20    10    19 1
    21    10    20 1
    22    11    21 1
    23    11    22 1
    24    12    23 1
    25    12    24 1
    26    13    25 1
    27    13    26 1
    28    14    27 1
@<TRIPOS>SUBSTRUCTURE
     1 EV3         1 TEMP              0 ****  ****    0 ROOT
