@<TRIPOS>MOLECULE
EV4
   49    51     1     0     0
SMALL
bcc


@<TRIPOS>ATOM
      1 C1           0.0000     0.0000     0.0000 ca         1 EV4      -0.069000
      2 C2           1.3860     0.0000     0.0000 ca         1 EV4      -0.264200
      3 C3           2.0880     0.0000     1.2170 ca         1 EV4       0.119400
      4 C4           1.3790     0.0010     2.4200 ca         1 EV4      -0.060000
      5 C5           0.0010     0.0010     2.4020 ca         1 EV4      -0.036600
      6 C6          -0.6870    -0.0000     1.1970 ca         1 EV4      -0.111000
      7 Cl7         -0.8810     0.0020     3.8980 cl         1 EV4      -0.038400
      8 N8           2.3470    -0.0010    -0.9990 na         1 EV4       0.262700
      9 C9           3.5670    -0.0010    -0.3870 cc         1 EV4       0.348700
     10 N10          3.4120     0.0000     0.9140 nd         1 EV4      -0.606100
     11 N11          4.7810    -0.0010    -1.0400 nv         1 EV4      -0.480800
     12 C12          2.0980    -0.0010    -2.4420 c3         1 EV4      -0.032700
     13 C13          2.0120     1.4410    -2.9460 c3         1 EV4      -0.039400
     14 C14          1.7530     1.4400    -4.4540 c3         1 EV4      -0.098400
     15 C15          1.6680     2.8610    -4.9500 c          1 EV4       0.587100
     16 O16          1.8010     3.7830    -4.1740 o          1 EV4      -0.643100
     17 N17          1.4430     3.1060    -6.2560 n          1 EV4      -0.151800
     18 C18          1.2830     1.9920    -7.1940 c3         1 EV4       0.072300
     19 C19          1.3610     4.4870    -6.7380 c3         1 EV4       0.018700
     20 C20          2.4480     4.7270    -7.7870 c3         1 EV4      -0.042400
     21 C21          2.3620     6.1700    -8.2910 c3         1 EV4      -0.018400
     22 C22          0.9860     6.4090    -8.9170 c3         1 EV4      -0.027400
     23 C23         -0.1010     6.1690    -7.8680 c3         1 EV4      -0.018400
     24 C24         -0.0140     4.7270    -7.3640 c3         1 EV4      -0.042400
     25 H1          -0.5430    -0.0010    -0.9370 ha         1 EV4       0.099000
     26 H4           1.9110     0.0020     3.3640 ha         1 EV4       0.122000
     27 H6          -1.7700     0.0000     1.1950 ha         1 EV4       0.113000
     28 HN11         5.6320     0.0130    -0.5140 hn         1 EV4       0.275300
     29 HN1A         4.8110    -0.0540    -2.0390 hn         1 EV4       0.275300
     30 H12          1.1660    -0.5120    -2.6480 h1         1 EV4       0.028700
     31 H12A         2.9090    -0.5120    -2.9480 h1         1 EV4       0.028700
     32 H13          1.2010     1.9520    -2.4410 hc         1 EV4       0.043200
     33 H13A         2.9450     1.9520    -2.7400 hc         1 EV4       0.043200
     34 H14          2.5640     0.9290    -4.9590 hc         1 EV4       0.029700
     35 H14A         0.8200     0.9300    -4.6600 hc         1 EV4       0.029700
     36 H18          2.1810     1.3870    -7.1920 h1         1 EV4       0.011367
     37 H18A         0.4380     1.3850    -6.8930 h1         1 EV4       0.011367
     38 H18B         1.1120     2.3810    -8.1900 h1         1 EV4       0.011367
     39 H19          1.5030     5.1720    -5.9110 h1         1 EV4       0.077700
     40 H20          2.3030     4.0470    -8.6170 hc         1 EV4       0.018950
     41 H20A         3.4210     4.5600    -7.3420 hc         1 EV4       0.018950
     42 H21          3.1300     6.3370    -9.0350 hc         1 EV4       0.017200
     43 H21A         2.5020     6.8500    -7.4590 hc         1 EV4       0.017200
     44 H22          0.8440     5.7250    -9.7450 hc         1 EV4       0.014200
     45 H22A         0.9250     7.4310    -9.2710 hc         1 EV4       0.014200
     46 H23          0.0440     6.8490    -7.0380 hc         1 EV4       0.017200
     47 H23A        -1.0740     6.3370    -8.3130 hc         1 EV4       0.017200
     48 H24         -0.1550     4.0460    -8.1960 hc         1 EV4       0.018950
     49 H24A        -0.7830     4.5590    -6.6200 hc         1 EV4       0.018950
@<TRIPOS>BOND
     1     1     2 ar  
     2     1     6 ar  
     3     1    25 1   
     4     2     3 ar  
     5     2     8 1   
     6     3     4 ar  
     7     3    10 1   
     8     4     5 ar  
     9     4    26 1   
    10     5     6 ar  
    11     5     7 1   
    12     6    27 1   
    13     8     9 1   
    14     8    12 1   
    15     9    10 2   
    16     9    11 1   
    17    11    28 1   
    18    11    29 1   
    19    12    13 1   
    20    12    30 1   
    21    12    31 1   
    22    13    14 1   
    23    13    32 1   
    24    13    33 1   
    25    14    15 1   
    26    14    34 1   
    27    14    35 1   
    28    15    16 2   
    29    15    17 1   
    30    17    18 1   
    31    17    19 1   
    32    18    36 1   
    33    18    37 1   
    34    18    38 1   
    35    19    20 1   
    36    19    24 1   
    37    19    39 1   
    38    20    21 1   
    39    20    40 1   
    40    20    41 1   
    41    21    22 1   
    42    21    42 1   
    43    21    43 1   
    44    22    23 1   
    45    22    44 1   
    46    22    45 1   
    47    23    24 1   
    48    23    46 1   
    49    23    47 1   
    50    24    48 1   
    51    24    49 1   
@<TRIPOS>SUBSTRUCTURE
     1 EV4         1 TEMP              0 ****  ****    0 ROOT
