@<TRIPOS>MOLECULE
molecule
   52    54     1     0     0
SMALL
bcc


@<TRIPOS>ATOM
      1 C1           0.0000     0.0000     0.0000 ca         1 EV5      -0.063200
      2 C2           1.3850     0.0000     0.0000 ca         1 EV5      -0.096000
      3 C3           2.0730     0.0000     1.1970 ca         1 EV5      -0.119000
      4 C4           1.3840    -0.0010     2.4020 ca         1 EV5       0.012400
      5 C5           0.0060    -0.0010     2.4200 ca         1 EV5      -0.074000
      6 C6          -0.7030    -0.0000     1.2170 ca         1 EV5       0.103400
      7 N7          -2.0270     0.0010     0.9140 nc         1 EV5      -0.617100
      8 C8          -2.1820     0.0010    -0.3870 cd         1 EV5       0.639700
      9 N9          -0.9610     0.0050    -0.9990 na         1 EV5      -0.154300
     10 N10         -3.3960     0.0000    -1.0410 nv         1 EV5      -1.003800
     11 Cl11         2.2660    -0.0010     3.8970 cl         1 EV5      -0.118400
     12 C12         -0.7130     0.0130    -2.4420 c3         1 EV5       0.081000
     13 C13         -1.3380    -1.2320    -3.0740 c3         1 EV5      -0.103400
     14 C14         -0.6210    -2.4800    -2.5560 c3         1 EV5      -0.091100
     15 C15         -1.3380     1.2660    -3.0600 c3         1 EV5      -0.177400
     16 C16         -0.6210     2.4890    -2.5490 c          1 EV5       0.651100
     17 N17         -0.9380     3.7070    -3.0320 ns         1 EV5      -0.587900
     18 O18          0.2420     2.3770    -1.7050 o          1 EV5      -0.595100
     19 C19         -0.2410     4.8960    -2.5350 c3         1 EV5       0.115000
     20 C20         -0.7880     6.1390    -3.2400 c3         1 EV5      -0.089700
     21 C21          0.0230     7.3640    -2.8140 c3         1 EV5      -0.073900
     22 C22         -0.5230     8.6080    -3.5200 c3         1 EV5      -0.079400
     23 C23         -1.9900     8.8080    -3.1350 c3         1 EV5      -0.080400
     24 C24         -2.8020     7.5830    -3.5610 c3         1 EV5      -0.079400
     25 C25         -2.2540     6.3400    -2.8560 c3         1 EV5      -0.073900
     26 H2           1.9280     0.0000    -0.9380 ha         1 EV5       0.134000
     27 H3           3.1560     0.0000     1.1960 ha         1 EV5       0.143000
     28 H5          -0.5250    -0.0010     3.3640 ha         1 EV5       0.152000
     29 HN10        -4.0020    -0.7920    -0.9680 hn         1 EV5       0.441800
     30 HN1A        -3.6990     0.8190    -1.5300 hn         1 EV5       0.441800
     31 H12          0.3540     0.0140    -2.6260 h1         1 EV5       0.086700
     32 H13         -1.2380    -1.1800    -4.1510 hc         1 EV5       0.052700
     33 H13A        -2.3870    -1.2830    -2.8100 hc         1 EV5       0.052700
     34 H14         -0.8250    -3.3140    -3.2170 hc         1 EV5       0.040700
     35 H14A         0.4460    -2.2970    -2.5250 hc         1 EV5       0.040700
     36 H14B        -0.9760    -2.7140    -1.5600 hc         1 EV5       0.040700
     37 H15         -1.2490     1.2190    -4.1390 hc         1 EV5       0.067700
     38 H15A        -2.3850     1.3200    -2.7860 hc         1 EV5       0.067700
     39 HN17        -1.6620     3.8000    -3.7170 hn         1 EV5       0.311500
     40 H19         -0.3990     4.9870    -1.4670 h1         1 EV5       0.057200
     41 H19A         0.8190     4.8030    -2.7370 h1         1 EV5       0.057200
     42 H20         -0.7120     6.0140    -4.3140 hc         1 EV5       0.052700
     43 H21         -0.0580     7.4940    -1.7420 hc         1 EV5       0.044200
     44 H21A         1.0610     7.2210    -3.0890 hc         1 EV5       0.044200
     45 H22          0.0500     9.4750    -3.2170 hc         1 EV5       0.042200
     46 H22A        -0.4470     8.4750    -4.5930 hc         1 EV5       0.042200
     47 H23         -2.3770     9.6870    -3.6370 hc         1 EV5       0.043200
     48 H23A        -2.0670     8.9350    -2.0620 hc         1 EV5       0.043200
     49 H24         -3.8400     7.7250    -3.2850 hc         1 EV5       0.042200
     50 H24A        -2.7210     7.4530    -4.6330 hc         1 EV5       0.042200
     51 H25         -2.3300     6.4720    -1.7840 hc         1 EV5       0.044200
     52 H25A        -2.8280     5.4720    -3.1600 hc         1 EV5       0.044200
@<TRIPOS>BOND
     1     1     2 ar
     2     1     6 ar
     3     1     9 1
     4     2     3 ar
     5     3     4 ar
     6     4     5 ar
     7     4    11 1
     8     5     6 ar
     9     6     7 1
    10     7     8 2
    11     8     9 1
    12     8    10 1
    13     9    12 1
    14    12    13 1
    15    12    15 1
    16    13    14 1
    17    15    16 1
    18    16    17 1
    19    16    18 2
    20    17    19 1
    21    19    20 1
    22    20    21 1
    23    20    25 1
    24    21    22 1
    25    22    23 1
    26    23    24 1
    27    24    25 1
    28     2    26 1
    29     3    27 1
    30     5    28 1
    31    10    29 1
    32    10    30 1
    33    12    31 1
    34    13    32 1
    35    13    33 1
    36    14    34 1
    37    14    35 1
    38    14    36 1
    39    15    37 1
    40    15    38 1
    41    17    39 1
    42    19    40 1
    43    19    41 1
    44    20    42 1
    45    21    43 1
    46    21    44 1
    47    22    45 1
    48    22    46 1
    49    23    47 1
    50    23    48 1
    51    24    49 1
    52    24    50 1
    53    25    51 1
    54    25    52 1
@<TRIPOS>SUBSTRUCTURE
     1 EV5         1 TEMP              0 ****  ****    0 ROOT
