@<TRIPOS>MOLECULE
EV6
   57    61     1     0     0
SMALL
bcc


@<TRIPOS>ATOM
      1 C1           0.0000     0.0000     0.0000 ca         1 EV6      -0.226200
      2 C2           1.3870     0.0000     0.0000 ca         1 EV6      -0.055000
      3 C3           2.0740     0.0000     1.1960 ca         1 EV6      -0.101000
      4 C4           1.3860    -0.0020     2.4020 ca         1 EV6      -0.046600
      5 C5           0.0080    -0.0040     2.4210 ca         1 EV6      -0.046000
      6 C6          -0.7020    -0.0020     1.2170 ca         1 EV6       0.075400
      7 N7          -2.0270    -0.0030     0.9130 nc         1 EV6      -0.540100
      8 C8          -2.1810    -0.0020    -0.3870 cd         1 EV6       0.308700
      9 N9          -0.9600     0.0050    -0.9990 na         1 EV6       0.310700
     10 N10         -3.3950    -0.0010    -1.0410 nv         1 EV6      -0.560800
     11 Cl11         2.2670    -0.0040     3.8970 cl         1 EV6      -0.042400
     12 C12         -0.7130     0.0080    -2.4430 c3         1 EV6      -0.038000
     13 C13         -1.3320    -1.2420    -3.0690 c3         1 EV6      -0.053400
     14 C14         -0.6080    -2.4860    -2.5470 c3         1 EV6      -0.001100
     15 C15         -1.3430     1.2560    -3.0650 c3         1 EV6      -0.126400
     16 C16         -0.6320     2.4830    -2.5600 c          1 EV6       0.567100
     17 N17         -0.9550     3.6980    -3.0470 ns         1 EV6      -0.192900
     18 O18          0.2310     2.3800    -1.7140 o          1 EV6      -0.645100
     19 C19         -0.2640     4.8930    -2.5550 c3         1 EV6       0.030700
     20 C20          1.0370     5.0880    -3.3370 c3         1 EV6      -0.054700
     21 C21          1.7590     6.3350    -2.8240 c3         1 EV6      -0.014900
     22 C22          0.8610     7.5590    -3.0140 c3         1 EV6      -0.043200
     23 C23          0.5400     7.7300    -4.5000 c3         1 EV6      -0.014400
     24 C24         -0.1810     6.4830    -5.0140 c3         1 EV6      -0.043200
     25 C25          0.7170     5.2590    -4.8230 c3         1 EV6      -0.014900
     26 C26         -1.1620     6.1170    -2.7450 c3         1 EV6      -0.054700
     27 C27         -1.4820     6.2880    -4.2320 c3         1 EV6      -0.014900
     28 C28         -0.4400     7.3640    -2.2320 c3         1 EV6      -0.014900
     29 H2           1.9300     0.0010    -0.9380 ha         1 EV6       0.105000
     30 H3           3.1570     0.0020     1.1940 ha         1 EV6       0.112000
     31 H5          -0.5230    -0.0050     3.3650 ha         1 EV6       0.119000
     32 HN10        -3.6790    -0.8030    -1.5690 hn         1 EV6       0.275300
     33 HN1A        -4.0080     0.7860    -0.9580 hn         1 EV6       0.275300
     34 H12          0.3550     0.0130    -2.6260 h1         1 EV6       0.065700
     35 H13         -1.2320    -1.1930    -4.1470 hc         1 EV6       0.024700
     36 H13A        -2.3810    -1.2970    -2.8050 hc         1 EV6       0.024700
     37 H14         -0.9290    -2.6910    -1.5320 hc         1 EV6       0.009700
     38 H14A         0.4610    -2.3130    -2.5590 hc         1 EV6       0.009700
     39 H14B        -0.8440    -3.3330    -3.1780 hc         1 EV6       0.009700
     40 H15         -1.2540     1.2060    -4.1440 hc         1 EV6       0.042700
     41 H15A        -2.3900     1.3070    -2.7920 hc         1 EV6       0.042700
     42 HN17        -1.6870     3.7870    -3.7240 hn         1 EV6       0.180500
     43 H19         -0.0380     4.7720    -1.5030 h1         1 EV6       0.063700
     44 H20          1.6730     4.2210    -3.2020 hc         1 EV6       0.036200
     45 H21          2.6790     6.4730    -3.3780 hc         1 EV6       0.017075
     46 H21A         1.9850     6.2130    -1.7710 hc         1 EV6       0.017075
     47 H22          1.3720     8.4420    -2.6500 hc         1 EV6       0.025200
     48 H23         -0.0960     8.5970    -4.6350 hc         1 EV6       0.016200
     49 H23A         1.4610     7.8690    -5.0540 hc         1 EV6       0.016200
     50 H24         -0.4070     6.6050    -6.0660 hc         1 EV6       0.025200
     51 H25          0.2050     4.3760    -5.1870 hc         1 EV6       0.017075
     52 H25A         1.6370     5.3970    -5.3770 hc         1 EV6       0.017075
     53 H26         -2.0830     5.9790    -2.1920 hc         1 EV6       0.036200
     54 H27         -2.1170     7.1550    -4.3680 hc         1 EV6       0.017075
     55 H27A        -1.9930     5.4050    -4.5960 hc         1 EV6       0.017075
     56 H28         -0.2150     7.2430    -1.1790 hc         1 EV6       0.017075
     57 H28A        -1.0760     8.2310    -2.3680 hc         1 EV6       0.017075
@<TRIPOS>BOND
     1     1     2 ar  
     2     1     6 ar  
     3     1     9 1   
     4     2     3 ar  
     5     2    29 1   
     6     3     4 ar  
     7     3    30 1   
     8     4     5 ar  
     9     4    11 1   
    10     5     6 ar  
    11     5    31 1   
    12     6     7 1   
    13     7     8 2   
    14     8     9 1   
    15     8    10 1   
    16     9    12 1   
    17    10    32 1   
    18    10    33 1   
    19    12    13 1   
    20    12    15 1   
    21    12    34 1   
    22    13    14 1   
    23    13    35 1   
    24    13    36 1   
    25    14    37 1   
    26    14    38 1   
    27    14    39 1   
    28    15    16 1   
    29    15    40 1   
    30    15    41 1   
    31    16    17 1   
    32    16    18 2   
    33    17    19 1   
    34    17    42 1   
    35    19    20 1   
    36    19    26 1   
    37    19    43 1   
    38    20    21 1   
    39    20    25 1   
    40    20    44 1   
    41    21    22 1   
    42    21    45 1   
    43    21    46 1   
    44    22    23 1   
    45    22    28 1   
    46    22    47 1   
    47    23    24 1   
    48    23    48 1   
    49    23    49 1   
    50    24    25 1   
    51    24    27 1   
    52    24    50 1   
    53    25    51 1   
    54    25    52 1   
    55    26    27 1   
    56    26    28 1   
    57    26    53 1   
    58    27    54 1   
    59    27    55 1   
    60    28    56 1   
    61    28    57 1   
@<TRIPOS>SUBSTRUCTURE
     1 EV6         1 TEMP              0 ****  ****    0 ROOT
