@<TRIPOS>MOLECULE
molecule
   38    41     1     0     0
SMALL
bcc


@<TRIPOS>ATOM
      1 C13          0.0000     0.0000     0.0000 ca         1 EV7      -0.239000
      2 C17         -2.9990    -1.2290    -0.6150 ca         1 EV7      -0.126000
      3 C20         -4.6250    -0.0780    -3.7130 ca         1 EV7      -0.115000
      4 C21         -4.9460     1.1010    -4.3120 ca         1 EV7      -0.141000
      5 C22         -4.6370     2.3200    -3.7090 ca         1 EV7      -0.139000
      6 C24         -3.6610     1.1670    -1.8530 ca         1 EV7      -0.027000
      7 C02         -0.7390     0.0030     3.6920 c          1 EV7       0.882200
      8 C04         -0.0010     0.0010     2.4160 ca         1 EV7      -0.118600
      9 C05          1.3950     0.0010     2.4120 ca         1 EV7      -0.055000
     10 C06          2.0820     0.0000     1.2060 ca         1 EV7      -0.069000
     11 C07          3.5670     0.0000     1.1990 cc         1 EV7      -0.217300
     12 C08          4.3670     0.0050     0.0930 cd         1 EV7      -0.137300
     13 C11          4.4050     0.0010     2.3290 cc         1 EV7       0.349200
     14 C12          1.3780     0.0000     0.0000 ca         1 EV7      -0.114000
     15 C14         -0.6990     0.0000     1.1990 ca         1 EV7       0.148100
     16 C16         -2.6890    -0.0090    -0.0070 ca         1 EV7       0.133100
     17 C18         -3.6280    -1.2700    -1.8200 ca         1 EV7      -0.127000
     18 C19         -3.9740    -0.0720    -2.4680 ca         1 EV7      -0.047000
     19 C23         -4.0080     2.3650    -2.5030 ca         1 EV7      -0.110000
     20 C25         -3.0160     1.1750    -0.6070 ca         1 EV7      -0.140000
     21 N09          5.6470     0.0020     0.5170 na         1 EV7      -0.059600
     22 N10          5.6450     0.0000     1.9160 nd         1 EV7      -0.536800
     23 O01         -0.0660     0.0050     4.8590 o          1 EV7      -0.827300
     24 O03         -1.9540     0.0030     3.6920 o          1 EV7      -0.827300
     25 O15         -2.0560     0.0000     1.1950 os         1 EV7      -0.190200
     26 H1          -0.5400    -0.0000    -0.9390 ha         1 EV7       0.122000
     27 H4          -5.4470     1.0930    -5.2720 ha         1 EV7       0.116000
     28 H5          -4.9040     3.2440    -4.2070 ha         1 EV7       0.118000
     29 H6           1.9390    -0.0860     3.3450 ha         1 EV7       0.161000
     30 H7           4.0340     0.0070    -0.9380 h4         1 EV7       0.165000
     31 H8           4.0790    -0.0000     3.3620 h4         1 EV7       0.063100
     32 H9           1.9180    -0.0010    -0.9390 ha         1 EV7       0.103000
     33 H10         -3.8620    -2.2240    -2.2780 ha         1 EV7       0.126000
     34 H11         -3.7740     3.3190    -2.0460 ha         1 EV7       0.132000
     35 H12         -2.7710     2.1150    -0.1270 ha         1 EV7       0.154000
     36 H13          6.4590     0.0030    -0.0680 hn         1 EV7       0.314700
     37 H2          -2.7310    -2.1550    -0.1210 ha         1 EV7       0.149000
     38 H3          -4.8710    -1.0170    -4.1940 ha         1 EV7       0.123000
@<TRIPOS>BOND
     1     4     3 ar
     2     4     5 ar
     3     3    18 ar
     4     5    19 ar
     5    18    17 ar
     6    18     6 ar
     7    17     2 ar
     8    19     6 ar
     9     6    20 ar
    10     2    16 ar
    11    20    16 ar
    12    16    25 1
    13     1    14 ar
    14     1    15 ar
    15    14    10 ar
    16    25    15 1
    17    15     8 ar
    18    10    11 1
    19    10     9 ar
    20    12    11 2
    21    12    21 1
    22    11    13 1
    23    21    22 1
    24    13    22 2
    25     8     9 ar
    26     8     7 1
    27    24     7 1
    28     7    23 1
    29     1    26 1
    30     2    37 1
    31     3    38 1
    32     4    27 1
    33     5    28 1
    34     9    29 1
    35    12    30 1
    36    13    31 1
    37    14    32 1
    38    17    33 1
    39    19    34 1
    40    20    35 1
    41    21    36 1
@<TRIPOS>SUBSTRUCTURE
     1 EV7         1 TEMP              0 ****  ****    0 ROOT
