@<TRIPOS>MOLECULE
molecule
   21    21     1     0     0
SMALL
bcc


@<TRIPOS>ATOM
      1 C            0.0000     0.0000     0.0000 c          1 EVA       0.879600
      2 N            1.9900     1.1770    -0.7100 ns         1 EVA      -0.526900
      3 O           -0.6040     1.0280    -0.2010 o          1 EVA      -0.825300
      4 CA           1.5080     0.0000     0.0000 c3         1 EVA      -0.016300
      5 CB           2.0130     0.0000     1.4430 c3         1 EVA       0.155100
      6 CG           3.5290     0.2260     1.4330 c3         1 EVA       0.110100
      7 OG           1.7190    -1.2580     2.0550 oh         1 EVA      -0.574800
      8 CAE          3.0280     1.9150    -0.3160 c          1 EVA       0.677500
      9 OAJ          5.2010     1.8000     0.6800 oh         1 EVA      -0.593800
     10 OAK          3.3640     2.8510    -1.0100 o          1 EVA      -0.693500
     11 CD1          3.8040     1.6490     0.9430 c3         1 EVA       0.067100
     12 OD2          4.0500     0.0620     2.7530 oh         1 EVA      -0.613800
     13 OXT         -0.6710    -1.1390     0.2290 o          1 EVA      -0.825300
     14 HN           1.5120     1.4490    -1.5460 hn         1 EVA       0.341500
     15 HA           1.8690    -0.8890    -0.5020 h1         1 EVA       0.061700
     16 HB           1.5320     0.7990     1.9950 h1         1 EVA       0.051700
     17 HG           3.9970    -0.4850     0.7610 h1         1 EVA       0.057700
     18 HOG          1.3370    -1.1120     2.9050 ho         1 EVA       0.403000
     19 HOAJ         5.5100     2.6000     1.0720 ho         1 EVA       0.402000
     20 HD1          3.4990     2.3550     1.7070 h1         1 EVA       0.062700
     21 HOD2         4.7530    -0.5660     2.7390 ho         1 EVA       0.401000
@<TRIPOS>BOND
     1     3     1 1
     2    13     1 1
     3     1     4 1
     4     2     8 1
     5     2     4 1
     6     2    14 1
     7     4     5 1
     8     4    15 1
     9     5     7 1
    10     5     6 1
    11     5    16 1
    12    11     6 1
    13     6    12 1
    14     6    17 1
    15     7    18 1
    16    10     8 2
    17     8    11 1
    18    11     9 1
    19     9    19 1
    20    11    20 1
    21    12    21 1
@<TRIPOS>SUBSTRUCTURE
     1 EVA         1 TEMP              0 ****  ****    0 ROOT
