@<TRIPOS>MOLECULE
EVD
   21    22     1     0     0
SMALL
bcc


@<TRIPOS>ATOM
      1 N           0.0730   -0.3530    0.2350 n4        1 EVD     -0.787500
      2 O           2.2280   -2.4510   -0.0830 os        1 EVD     -0.167200
      3 S           1.8620    0.0850   -0.2650 sy        1 EVD      1.516800
      4 O1          2.3940    0.3340    0.9750 o         1 EVD     -0.558800
      5 C2          2.2240   -1.3080   -0.9430 cc        1 EVD     -0.487000
      6 O2          1.6490    1.0930   -1.1790 o         1 EVD     -0.558800
      7 C3          2.6270   -1.6870   -2.2320 cd        1 EVD      0.149800
      8 C4          3.3670   -4.0240   -3.1460 ca        1 EVD     -0.022000
      9 C5          3.5450   -5.3320   -2.7270 ca        1 EVD     -0.148000
     10 C6          3.2870   -5.7280   -1.3970 ca        1 EVD     -0.021000
     11 C7          2.8380   -4.8300   -0.4330 ca        1 EVD     -0.150000
     12 C8          2.6620   -3.5140   -0.8590 ca        1 EVD      0.151100
     13 C9          2.9160   -3.0840   -2.2040 ca        1 EVD     -0.184800
     14 HN         -0.6010    0.1940   -0.2960 hn        1 EVD      0.459800
     15 HNA        -0.0760   -0.1600    1.2250 hn        1 EVD      0.459800
     16 H3          2.7130   -1.0270   -3.1030 ha        1 EVD      0.200000
     17 H4          3.5750   -3.7200   -4.1840 ha        1 EVD      0.168000
     18 H5          3.9000   -6.0910   -3.4450 ha        1 EVD      0.171000
     19 H6          3.4500   -6.7830   -1.1140 ha        1 EVD      0.171000
     20 H7          2.6440   -5.1320    0.6060 ha        1 EVD      0.179000
     21 HN3        -0.1280   -1.3390    0.0810 hn        1 EVD      0.459800
@<TRIPOS>BOND
     1    1    3 1
     2    1   14 1
     3    1   15 1
     4    1   21 1
     5    2    5 1
     6    2   12 1
     7    3    4 2
     8    3    5 1
     9    3    6 2
    10    5    7 2
    11    7   13 1
    12    7   16 1
    13    8    9 ar
    14    8   13 ar
    15    8   17 1
    16    9   10 ar
    17    9   18 1
    18   10   11 ar
    19   10   19 1
    20   11   12 ar
    21   11   20 1
    22   12   13 ar
@<TRIPOS>SUBSTRUCTURE
     1 EVD         1 TEMP              0 ****  ****    0 ROOT
