@<TRIPOS>MOLECULE
EVE
   21    22     1     0     0
SMALL
bcc


@<TRIPOS>ATOM
      1 N            0.0000     0.0000     0.0000 nz         1 EVE      -0.131500
      2 S            1.6560     0.0000     0.0000 sy         1 EVE       0.906000
      3 N1           2.4080    -1.7810    -1.9920 na         1 EVE       0.325700
      4 O1           2.0580     0.0000     1.3630 o          1 EVE      -0.481300
      5 C2           2.1780    -1.5440    -0.6720 cc         1 EVE       0.051200
      6 N2           2.3980    -2.6210     0.0220 nd         1 EVE      -0.353100
      7 O2           2.0570     0.9980    -0.9290 o          1 EVE      -0.481300
      8 C4           3.1520    -3.9120    -3.1780 ca         1 EVE      -0.108000
      9 C5           3.4920    -5.2290    -2.9520 ca         1 EVE      -0.015000
     10 C6           3.4780    -5.7470    -1.6660 ca         1 EVE      -0.099000
     11 C7           3.1410    -4.9610    -0.6010 ca         1 EVE      -0.007000
     12 C8           2.7860    -3.6260    -0.8060 ca         1 EVE       0.025400
     13 C9           2.7930    -3.1010    -2.1100 ca         1 EVE      -0.218200
     14 HN          -0.3340    -0.0730    -0.9410 hn         1 EVE       0.315800
     15 HNA         -0.3340    -0.7780     0.5340 hn         1 EVE       0.315800
     16 H4           3.1650    -3.5120    -4.1840 ha         1 EVE       0.119000
     17 H5           3.7620    -5.8660    -3.7860 ha         1 EVE       0.122000
     18 H6           3.7470    -6.7840    -1.5020 ha         1 EVE       0.126000
     19 H7           3.1330    -5.3760     0.4000 ha         1 EVE       0.125000
     20 HN3         -0.3340     0.8610     0.3860 hn         1 EVE       0.315800
     21 HN1          2.4410    -1.0910    -2.7160 hn         1 EVE       0.145700
@<TRIPOS>BOND
     1     1     2 1   
     2     1    14 1   
     3     1    15 1   
     4     1    20 1   
     5     2     4 2   
     6     2     5 1   
     7     2     7 2   
     8     3     5 1   
     9     3    13 1   
    10     3    21 1   
    11     5     6 2   
    12     6    12 1   
    13     8     9 ar  
    14     8    13 ar  
    15     8    16 1   
    16     9    10 ar  
    17     9    17 1   
    18    10    11 ar  
    19    10    18 1   
    20    11    12 ar  
    21    11    19 1   
    22    12    13 ar  
@<TRIPOS>SUBSTRUCTURE
     1 EVE         1 TEMP              0 ****  ****    0 ROOT
