@<TRIPOS>MOLECULE
molecule
   21    22     1     0     0
SMALL
bcc


@<TRIPOS>ATOM
      1 N            0.0000     0.0000     0.0000 nz         1 EVE      -0.811500
      2 S            1.6560     0.0000     0.0000 sy         1 EVE       1.209000
      3 N1           2.4080    -1.7810    -1.9920 na         1 EVE      -0.220300
      4 O1           2.0580     0.0000     1.3630 o          1 EVE      -0.494300
      5 C2           2.1780    -1.5440    -0.6720 cc         1 EVE       0.142200
      6 N2           2.3980    -2.6210     0.0220 nd         1 EVE      -0.458100
      7 O2           2.0570     0.9980    -0.9290 o          1 EVE      -0.494300
      8 C4           3.1520    -3.9120    -3.1780 ca         1 EVE      -0.151000
      9 C5           3.4920    -5.2290    -2.9520 ca         1 EVE      -0.044000
     10 C6           3.4780    -5.7470    -1.6660 ca         1 EVE      -0.133000
     11 C7           3.1410    -4.9610    -0.6010 ca         1 EVE      -0.038000
     12 C8           2.7860    -3.6260    -0.8060 ca         1 EVE       0.063400
     13 C9           2.7930    -3.1010    -2.1100 ca         1 EVE      -0.025200
     14 HN          -0.3340    -0.0730    -0.9410 hn         1 EVE       0.496467
     15 HNA         -0.3340    -0.7780     0.5340 hn         1 EVE       0.496467
     16 H4           3.1650    -3.5120    -4.1840 ha         1 EVE       0.151000
     17 H5           3.7620    -5.8660    -3.7860 ha         1 EVE       0.162000
     18 H6           3.7470    -6.7840    -1.5020 ha         1 EVE       0.163000
     19 H7           3.1330    -5.3760     0.4000 ha         1 EVE       0.164000
     20 HN3         -0.3340     0.8610     0.3860 hn         1 EVE       0.496467
     21 HN1          2.4410    -1.0910    -2.7160 hn         1 EVE       0.325700
@<TRIPOS>BOND
     1     1     2 1
     2     1    14 1
     3     1    15 1
     4     5     2 1
     5     7     2 2
     6     2     4 2
     7    13     3 1
     8     3     5 1
     9     6     5 2
    10    12     6 1
    11     9     8 ar
    12     8    13 ar
    13     8    16 1
    14     9    10 ar
    15     9    17 1
    16    10    11 ar
    17    10    18 1
    18    11    12 ar
    19    11    19 1
    20    13    12 ar
    21     3    21 1
    22    20     1 1
@<TRIPOS>SUBSTRUCTURE
     1 EVE         1 TEMP              0 ****  ****    0 ROOT
