@<TRIPOS>MOLECULE
EVF
   20    21     1     0     0
SMALL
bcc


@<TRIPOS>ATOM
      1 N            0.0000     0.0000     0.0000 nz         1 EVF      -0.113500
      2 S            1.6550     0.0000     0.0000 sy         1 EVF       0.906000
      3 O1           2.0560     0.0000     1.3630 o          1 EVF      -0.481300
      4 S1           3.8090    -2.0010    -0.8710 ss         1 EVF      -0.003100
      5 C2           2.1770    -1.5430    -0.6720 cc         1 EVF       0.221600
      6 O2           2.0570     0.9980    -0.9290 o          1 EVF      -0.481300
      7 N3           1.3800    -2.4610    -1.0710 nd         1 EVF      -0.385100
      8 C4           1.2870    -4.7460    -2.0660 ca         1 EVF      -0.013000
      9 C5           2.0260    -5.7950    -2.5220 ca         1 EVF      -0.084000
     10 C6           3.4130    -5.7480    -2.5020 ca         1 EVF      -0.018000
     11 C7           4.0580    -4.6340    -2.0160 ca         1 EVF      -0.060000
     12 C8           3.3180    -3.5520    -1.5460 ca         1 EVF       0.037900
     13 C9           1.9200    -3.5920    -1.5630 ca         1 EVF       0.018400
     14 HN          -0.3340    -0.1060    -0.9380 hn         1 EVF       0.316467
     15 HNA         -0.3340    -0.7590     0.5610 hn         1 EVF       0.316467
     16 H4           0.2050    -4.8000    -2.0890 ha         1 EVF       0.118000
     17 H5           1.5260    -6.6760    -2.9060 ha         1 EVF       0.127000
     18 H6           3.9890    -6.5900    -2.8680 ha         1 EVF       0.126000
     19 H7           5.1410    -4.5980    -2.0000 ha         1 EVF       0.132000
     20 HN3         -0.3340     0.8650     0.3770 hn         1 EVF       0.316467
@<TRIPOS>BOND
     1     1     2 1   
     2     1    14 1   
     3     1    15 1   
     4     1    20 1   
     5     2     3 2   
     6     2     5 1   
     7     2     6 2   
     8     4     5 1   
     9     4    12 1   
    10     5     7 2   
    11     7    13 1   
    12     8     9 ar  
    13     8    13 ar  
    14     8    16 1   
    15     9    10 ar  
    16     9    17 1   
    17    10    11 ar  
    18    10    18 1   
    19    11    12 ar  
    20    11    19 1   
    21    12    13 ar  
@<TRIPOS>SUBSTRUCTURE
     1 EVF         1 TEMP              0 ****  ****    0 ROOT
