@<TRIPOS>MOLECULE
molecule
   20    21     1     0     0
SMALL
bcc


@<TRIPOS>ATOM
      1 N            0.0000     0.0000     0.0000 nz         1 EVF      -0.801500
      2 S            1.6550     0.0000     0.0000 sy         1 EVF       1.217000
      3 O1           2.0560     0.0000     1.3630 o          1 EVF      -0.505800
      4 S1           3.8090    -2.0010    -0.8710 ss         1 EVF       0.144900
      5 C2           2.1770    -1.5430    -0.6720 cc         1 EVF       0.088600
      6 O2           2.0570     0.9980    -0.9290 o          1 EVF      -0.505800
      7 N3           1.3800    -2.4610    -1.0710 nd         1 EVF      -0.525100
      8 C4           1.2870    -4.7460    -2.0660 ca         1 EVF      -0.052000
      9 C5           2.0260    -5.7950    -2.5220 ca         1 EVF      -0.112000
     10 C6           3.4130    -5.7480    -2.5020 ca         1 EVF      -0.057000
     11 C7           4.0580    -4.6340    -2.0160 ca         1 EVF      -0.100000
     12 C8           3.3180    -3.5520    -1.5460 ca         1 EVF      -0.023100
     13 C9           1.9200    -3.5920    -1.5630 ca         1 EVF       0.091400
     14 HN          -0.3340    -0.1060    -0.9380 hn         1 EVF       0.499133
     15 HNA         -0.3340    -0.7590     0.5610 hn         1 EVF       0.499133
     16 H4           0.2050    -4.8000    -2.0890 ha         1 EVF       0.155000
     17 H5           1.5260    -6.6760    -2.9060 ha         1 EVF       0.163000
     18 H6           3.9890    -6.5900    -2.8680 ha         1 EVF       0.164000
     19 H7           5.1410    -4.5980    -2.0000 ha         1 EVF       0.161000
     20 HN3         -0.3340     0.8650     0.3770 hn         1 EVF       0.499133
@<TRIPOS>BOND
     1     2     1 1
     2     1    14 1
     3     1    15 1
     4     5     2 1
     5     3     2 2
     6     2     6 2
     7    12     4 1
     8     4     5 1
     9     7     5 2
    10    13     7 1
    11     9     8 ar
    12     8    13 ar
    13     8    16 1
    14    10     9 ar
    15     9    17 1
    16    10    11 ar
    17    10    18 1
    18    11    12 ar
    19    11    19 1
    20    12    13 ar
    21    20     1 1
@<TRIPOS>SUBSTRUCTURE
     1 EVF         1 TEMP              0 ****  ****    0 ROOT
