@<TRIPOS>MOLECULE
EVG
   15    15     1     0     0
SMALL
bcc


@<TRIPOS>ATOM
      1 O           0.2060   -0.2290   -0.1150 os        1 EVG     -0.306800
      2 S           2.4860    0.2040   -1.2580 sy        1 EVG      1.451800
      3 O1          3.8280    0.3390   -0.9820 o         1 EVG     -0.554800
      4 C2          1.5940    0.0250    0.0460 cc        1 EVG     -0.289400
      5 O2          1.8910    0.8220   -2.3280 o         1 EVG     -0.554800
      6 C3          1.8500    0.1580    1.4280 cd        1 EVG      0.020700
      7 C4          0.6140    0.0020    2.1140 cd        1 EVG     -0.291300
      8 C5         -0.3560   -0.2280    1.1370 cc        1 EVG      0.412600
      9 NH          2.4150   -1.6090   -1.8540 n4        1 EVG     -0.788500
     10 H3          2.8250    0.3570    1.8870 ha        1 EVG      0.207000
     11 H4          0.4600    0.0600    3.1930 ha        1 EVG      0.213000
     12 H5         -1.4380   -0.4030    1.1540 h4        1 EVG      0.101100
     13 HNH         2.0800   -1.6530   -2.8160 hn        1 EVG      0.459467
     14 HNHA        1.7910   -2.1740   -1.2850 hn        1 EVG      0.459467
     15 HH3         3.3390   -2.0370   -1.8260 hn        1 EVG      0.459467
@<TRIPOS>BOND
     1    1    4 1
     2    1    8 1
     3    2    3 2
     4    2    4 1
     5    2    5 2
     6    2    9 1
     7    4    6 2
     8    6    7 1
     9    6   10 1
    10    7    8 2
    11    7   11 1
    12    8   12 1
    13    9   13 1
    14    9   14 1
    15    9   15 1
@<TRIPOS>SUBSTRUCTURE
     1 EVG         1 TEMP              0 ****  ****    0 ROOT
