@<TRIPOS>MOLECULE
molecule
   15    15     1     0     0
SMALL
bcc


@<TRIPOS>ATOM
      1 S            0.0000     0.0000     0.0000 sy         1 EVH       1.225800
      2 N1           0.1280     0.6520     2.6940 na         1 EVH      -0.211900
      3 O1           1.4210     0.0000     0.0000 o          1 EVH      -0.504800
      4 C2          -0.4970     0.0000     1.6910 cc         1 EVH       0.135400
      5 O2          -0.7770     1.0000    -0.6460 o          1 EVH      -0.504800
      6 N3          -1.5310    -0.6290     2.1800 nd         1 EVH      -0.644000
      7 C4          -1.6020    -0.4040     3.5000 cd         1 EVH       0.336200
      8 C5          -0.5700     0.3900     3.8440 cc         1 EVH      -0.163600
      9 NH          -0.4690    -1.4490    -0.6490 nz         1 EVH      -0.804500
     10 H4          -2.3540    -0.7970     4.1730 h4         1 EVH       0.079100
     11 H5          -0.3400     0.7570     4.8370 h4         1 EVH       0.216000
     12 HNH         -1.4680    -1.5110    -0.6410 hn         1 EVH       0.501800
     13 HNHA        -0.1380    -1.5150    -1.5910 hn         1 EVH       0.501800
     14 HH3         -0.0840    -2.1970    -0.1070 hn         1 EVH       0.501800
     15 HN1          0.9520     1.2150     2.6150 hn         1 EVH       0.334700
@<TRIPOS>BOND
     1     4     1 1
     2     9     1 1
     3     3     1 2
     4     1     5 2
     5     8     2 1
     6     2     4 1
     7     6     4 2
     8     7     6 1
     9     7     8 2
    10     7    10 1
    11     8    11 1
    12     9    12 1
    13     9    13 1
    14     2    15 1
    15    14     9 1
@<TRIPOS>SUBSTRUCTURE
     1 EVH         1 TEMP              0 ****  ****    0 ROOT
