@<TRIPOS>MOLECULE
EVH
   15    15     1     0     0
SMALL
bcc


@<TRIPOS>ATOM
      1 S            0.0000     0.0000     0.0000 sy         1 EVH       0.917800
      2 N1           0.1280     0.6520     2.6940 na         1 EVH       0.390100
      3 O1           1.4210     0.0000     0.0000 o          1 EVH      -0.494300
      4 C2          -0.4970     0.0000     1.6910 cc         1 EVH       0.044400
      5 O2          -0.7770     1.0000    -0.6460 o          1 EVH      -0.494300
      6 N3          -1.5310    -0.6290     2.1800 nd         1 EVH      -0.575000
      7 C4          -1.6020    -0.4040     3.5000 cd         1 EVH       0.360200
      8 C5          -0.5700     0.3900     3.8440 cc         1 EVH      -0.355600
      9 NH          -0.4690    -1.4490    -0.6490 nz         1 EVH      -0.101500
     10 H4          -2.3540    -0.7970     4.1730 h4         1 EVH       0.032100
     11 H5          -0.3400     0.7570     4.8370 h4         1 EVH       0.180000
     12 HNH         -1.4680    -1.5110    -0.6410 hn         1 EVH       0.318467
     13 HNHA        -0.1380    -1.5150    -1.5910 hn         1 EVH       0.318467
     14 HH3         -0.0840    -2.1970    -0.1070 hn         1 EVH       0.318467
     15 HN1          0.9520     1.2150     2.6150 hn         1 EVH       0.141700
@<TRIPOS>BOND
     1     1     3 2   
     2     1     4 1   
     3     1     5 2   
     4     1     9 1   
     5     2     4 1   
     6     2     8 1   
     7     2    15 1   
     8     4     6 2   
     9     6     7 1   
    10     7     8 2   
    11     7    10 1   
    12     8    11 1   
    13     9    12 1   
    14     9    13 1   
    15     9    14 1   
@<TRIPOS>SUBSTRUCTURE
     1 EVH         1 TEMP              0 ****  ****    0 ROOT
