@<TRIPOS>MOLECULE
molecule
   14    14     1     0     0
SMALL
bcc


@<TRIPOS>ATOM
      1 S            0.0000     0.0000     0.0000 sy         1 EVI       1.216800
      2 O1           1.4210     0.0000     0.0000 o          1 EVI      -0.506800
      3 S1          -0.2370     1.2850     2.7870 ss         1 EVI       0.074700
      4 C2          -0.4980     0.0000     1.6900 cc         1 EVI       0.115300
      5 O2          -0.7770     0.9980    -0.6480 o          1 EVI      -0.506800
      6 N3          -1.1120    -0.9690     2.2790 nd         1 EVI      -0.636000
      7 C4          -1.4120    -0.8060     3.5510 cd         1 EVI       0.362200
      8 C5          -1.0310     0.3670     4.0650 cc         1 EVI      -0.113400
      9 NH          -0.4670    -1.4500    -0.6480 nz         1 EVI      -0.800500
     10 H4          -1.9260    -1.5610     4.1340 h4         1 EVI       0.078100
     11 H5          -1.1820     0.6950     5.0860 h4         1 EVI       0.217000
     12 HNH         -1.4610    -1.5430    -0.5740 hn         1 EVI       0.499800
     13 HNHA        -0.2000    -1.4860    -1.6120 hn         1 EVI       0.499800
     14 HH3         -0.0240    -2.1960    -0.1510 hn         1 EVI       0.499800
@<TRIPOS>BOND
     1     4     1 1
     2     5     1 2
     3     1     2 2
     4     1     9 1
     5     8     3 1
     6     4     3 1
     7     6     4 2
     8     7     6 1
     9     7     8 2
    10     7    10 1
    11     8    11 1
    12     9    12 1
    13     9    13 1
    14    14     9 1
@<TRIPOS>SUBSTRUCTURE
     1 EVI         1 TEMP              0 ****  ****    0 ROOT
