@<TRIPOS>MOLECULE
EVJ
   15    15     1     0     0
SMALL
bcc


@<TRIPOS>ATOM
      1 S            0.0000     0.0000     0.0000 sy         1 EVJ       0.971200
      2 O1           1.4220     0.0000     0.0000 o          1 EVJ      -0.484300
      3 S1          -2.0490     0.5730     2.2900 ss         1 EVJ      -0.130800
      4 C2          -0.4980     0.0000     1.6900 cc         1 EVJ      -0.185600
      5 O2          -0.7770     0.9980    -0.6480 o          1 EVJ      -0.484300
      6 C3           0.2430    -0.4360     2.7100 cd         1 EVJ       0.076000
      7 C4          -0.3600    -0.3380     3.9520 cd         1 EVJ      -0.170000
      8 C5          -1.5900     0.1780     3.9420 cc         1 EVJ       0.134900
      9 NH          -0.4670    -1.4500    -0.6490 nz         1 EVJ      -0.127500
     10 H3           1.2410    -0.8370     2.5770 ha         1 EVJ       0.135000
     11 H4           0.1310    -0.6550     4.8640 ha         1 EVJ       0.153000
     12 H5          -2.2110     0.3290     4.8160 h4         1 EVJ       0.170000
     13 HNH         -1.4560    -1.5610    -0.5400 hn         1 EVJ       0.314800
     14 HNHA        -0.2340    -1.4700    -1.6220 hn         1 EVJ       0.314800
     15 HH3          0.0060    -2.1950    -0.1770 hn         1 EVJ       0.314800
@<TRIPOS>BOND
     1     1     2 2   
     2     1     4 1   
     3     1     5 2   
     4     1     9 1   
     5     3     4 1   
     6     3     8 1   
     7     4     6 2   
     8     6     7 1   
     9     6    10 1   
    10     7     8 2   
    11     7    11 1   
    12     8    12 1   
    13     9    13 1   
    14     9    14 1   
    15     9    15 1   
@<TRIPOS>SUBSTRUCTURE
     1 EVJ         1 TEMP              0 ****  ****    0 ROOT
