@<TRIPOS>MOLECULE
EVK
   51    53     1     0     0
SMALL
bcc


@<TRIPOS>ATOM
      1 C1           0.0000     0.0000     0.0000 c3         1 EVK      -0.014100
      2 C2           1.5290     0.0000     0.0000 c3         1 EVK       0.130500
      3 C3           2.0400     0.0000     1.4430 c3         1 EVK      -0.014100
      4 N4           2.0180    -1.1970    -0.6890 nu         1 EVK      -0.513900
      5 C5           3.2800    -1.1960    -1.2770 ca         1 EVK       0.526200
      6 C6           4.0690    -0.0560    -1.2040 ca         1 EVK      -0.311300
      7 C7           5.3320    -0.0700    -1.7960 ca         1 EVK       0.105000
      8 C8           6.2110     1.1240    -1.7440 cc         1 EVK      -0.144000
      9 C11          7.9860     2.4440    -1.4470 cd         1 EVK      -0.413900
     10 C12          7.5630     1.1490    -1.3470 cc         1 EVK      -0.044000
     11 C13          9.3320     2.9360    -1.1330 c          1 EVK       0.639700
     12 C16         10.9670     4.7350    -0.9620 c3         1 EVK       0.081000
     13 C19         11.2330     5.9980    -1.7370 ca         1 EVK      -0.093300
     14 C21         10.4750     8.0980    -2.6060 ca         1 EVK      -0.089000
     15 C22         11.7210     8.3190    -3.1610 ca         1 EVK      -0.095000
     16 C23         12.7230     7.3770    -3.0100 ca         1 EVK      -0.033600
     17 C25         12.4770     6.2160    -2.2970 ca         1 EVK      -0.085000
     18 C26          5.7480    -1.2410    -2.4430 ca         1 EVK      -0.224900
     19 C28          4.9020    -2.3300    -2.4700 ca         1 EVK       0.461200
     20 C9           5.8590     2.4120    -2.0790 cd         1 EVK      -0.303300
     21 N10          6.9330     3.2070    -1.8970 na         1 EVK       0.431900
     22 O14         10.1870     2.1630    -0.7450 o          1 EVK      -0.642100
     23 N15          9.6220     4.2440    -1.2740 ns         1 EVK      -0.203900
     24 C17         11.0670     5.0260     0.5370 c3         1 EVK       0.206400
     25 O18         10.1840     6.0990     0.8740 oh         1 EVK      -0.602800
     26 C20         10.2310     6.9380    -1.8940 ca         1 EVK      -0.087000
     27 Cl1         14.2870     7.6530    -3.7090 cl         1 EVK      -0.022400
     28 Cl2          7.3080    -1.3200    -3.1990 cl         1 EVK      -0.007400
     29 N29          3.7160    -2.2840    -1.8940 nb         1 EVK      -0.653000
     30 H33         -0.3610    -0.8820     0.5150 hc         1 EVK       0.011533
     31 H34         -0.3610     0.8870     0.5060 hc         1 EVK       0.011533
     32 H32         -0.3610    -0.0050    -1.0210 hc         1 EVK       0.011533
     33 H35          1.8900     0.8840    -0.5110 h1         1 EVK       0.034700
     34 H36          1.4200    -0.6530     2.0450 hc         1 EVK       0.011533
     35 H37          1.9970     1.0070     1.8410 hc         1 EVK       0.011533
     36 H38          3.0640    -0.3530     1.4640 hc         1 EVK       0.011533
     37 H39          1.4440    -2.0150    -0.7380 hn         1 EVK       0.300800
     38 H40          3.6410     0.8780    -0.8630 ha         1 EVK       0.130000
     39 H42          8.1030     0.3370    -0.8740 ha         1 EVK       0.148000
     40 H31         11.6980     3.9830    -1.2330 h1         1 EVK       0.066700
     41 H48          9.6900     8.8350    -2.7260 ha         1 EVK       0.106000
     42 H49         11.9120     9.2280    -3.7190 ha         1 EVK       0.115000
     43 H50         13.2610     5.4780    -2.1790 ha         1 EVK       0.120000
     44 H51          5.2190    -3.2400    -2.9670 h4         1 EVK      -0.015900
     45 H41          4.8840     2.7320    -2.4270 h4         1 EVK       0.148000
     46 H30          6.9590     4.1940    -2.0630 hn         1 EVK       0.105700
     47 H43          8.9290     4.8750    -1.6280 hn         1 EVK       0.173500
     48 H45         12.0840     5.3050     0.7840 h1         1 EVK       0.004200
     49 H44         10.7890     4.1410     1.0960 h1         1 EVK       0.004200
     50 H46         10.2270     6.2610     1.8020 ho         1 EVK       0.395000
     51 H47          9.2540     6.7660    -1.4590 ha         1 EVK       0.111000
@<TRIPOS>BOND
     1     1     2 1   
     2     1    30 1   
     3     1    31 1   
     4     1    32 1   
     5     2     3 1   
     6     2     4 1   
     7     2    33 1   
     8     3    34 1   
     9     3    35 1   
    10     3    36 1   
    11     4     5 1   
    12     4    37 1   
    13     5     6 ar  
    14     5    29 ar  
    15     6     7 ar  
    16     6    38 1   
    17     7     8 1   
    18     7    18 ar  
    19     8    10 1   
    20     8    20 2   
    21     9    10 2   
    22     9    11 1   
    23     9    21 1   
    24    10    39 1   
    25    11    22 2   
    26    11    23 1   
    27    12    13 1   
    28    12    23 1   
    29    12    24 1   
    30    12    40 1   
    31    13    17 ar  
    32    13    26 ar  
    33    14    15 ar  
    34    14    26 ar  
    35    14    41 1   
    36    15    16 ar  
    37    15    42 1   
    38    16    17 ar  
    39    16    27 1   
    40    17    43 1   
    41    18    19 ar  
    42    18    28 1   
    43    19    29 ar  
    44    19    44 1   
    45    20    21 1   
    46    20    45 1   
    47    21    46 1   
    48    23    47 1   
    49    24    25 1   
    50    24    48 1   
    51    24    49 1   
    52    25    50 1   
    53    26    51 1   
@<TRIPOS>SUBSTRUCTURE
     1 EVK         1 TEMP              0 ****  ****    0 ROOT
