@<TRIPOS>MOLECULE
molecule
   27    29     1     0     0
SMALL
bcc


@<TRIPOS>ATOM
      1 O            0.0000     0.0000     0.0000 o          1 EVO      -0.608500
      2 C1           1.2180     0.0000     0.0000 c          1 EVO       0.713700
      3 C8           2.0840     0.0000     1.1930 cc         1 EVO      -0.144400
      4 C7           3.4670     0.0010     0.6610 ca         1 EVO      -0.120800
      5 C6           4.7190     0.0060     1.2650 ca         1 EVO      -0.083000
      6 C5           5.8570     0.0130     0.4830 ca         1 EVO      -0.158000
      7 C4           5.7490     0.0150    -0.8980 ca         1 EVO      -0.090000
      8 C3           4.5110     0.0090    -1.5070 ca         1 EVO      -0.158000
      9 C2           3.3530     0.0030    -0.7350 ca         1 EVO       0.059600
     10 N1           2.0080    -0.0040    -1.0860 ns         1 EVO      -0.454100
     11 C9           1.6990    -0.0010     2.5000 cf         1 EVO       0.001800
     12 C10          2.6900    -0.2270     3.5590 ca         1 EVO      -0.212100
     13 C14          2.6910     0.5620     4.7160 ca         1 EVO       0.444200
     14 N2           3.5810     0.3570     5.6620 nb         1 EVO      -0.691000
     15 C13          4.4990    -0.5860     5.5660 ca         1 EVO       0.429200
     16 C12          4.5670    -1.4090     4.4550 ca         1 EVO      -0.266300
     17 C11          3.6520    -1.2420     3.4310 ca         1 EVO      -0.071000
     18 H1           4.8020     0.0050     2.3450 ha         1 EVO       0.148000
     19 H2           6.8350     0.0180     0.9500 ha         1 EVO       0.136000
     20 H3           6.6460     0.0210    -1.5060 ha         1 EVO       0.135000
     21 H4           4.4400     0.0110    -2.5870 ha         1 EVO       0.133000
     22 H5           1.6720    -0.0110    -2.0290 hn         1 EVO       0.342500
     23 H6           0.6440    -0.0000     2.7470 ha         1 EVO       0.160000
     24 H7           1.9530     1.3460     4.8320 h4         1 EVO       0.031100
     25 H8           5.2140    -0.7180     6.3700 h4         1 EVO       0.026100
     26 H9           5.3240    -2.1810     4.3910 ha         1 EVO       0.143000
     27 H10          3.6820    -1.8720     2.5510 ha         1 EVO       0.154000
@<TRIPOS>BOND
     1     6     5 ar
     2     6     7 ar
     3    15    16 ar
     4    15    14 ar
     5    16    17 ar
     6     5     4 ar
     7     7     8 ar
     8    14    13 ar
     9    17    12 ar
    10    13    12 ar
    11    12    11 1
    12     4     9 ar
    13     4     3 1
    14     8     9 ar
    15     9    10 1
    16    11     3 2
    17     3     2 1
    18    10     2 1
    19     2     1 2
    20     5    18 1
    21     6    19 1
    22     7    20 1
    23     8    21 1
    24    10    22 1
    25    11    23 1
    26    13    24 1
    27    15    25 1
    28    16    26 1
    29    17    27 1
@<TRIPOS>SUBSTRUCTURE
     1 EVO         1 TEMP              0 ****  ****    0 ROOT
