@<TRIPOS>MOLECULE
EVO
   27    29     1     0     0
SMALL
bcc


@<TRIPOS>ATOM
      1 O            0.0000     0.0000     0.0000 o          1 EVO      -0.651500
      2 C1           1.2180     0.0000     0.0000 c          1 EVO       0.617700
      3 C8           2.0840     0.0000     1.1930 cc         1 EVO      -0.156400
      4 C7           3.4670     0.0010     0.6610 ca         1 EVO      -0.112800
      5 C6           4.7190     0.0060     1.2650 ca         1 EVO      -0.072000
      6 C5           5.8570     0.0130     0.4830 ca         1 EVO      -0.126000
      7 C4           5.7490     0.0150    -0.8980 ca         1 EVO      -0.065000
      8 C3           4.5110     0.0090    -1.5070 ca         1 EVO      -0.119000
      9 C2           3.3530     0.0030    -0.7350 ca         1 EVO      -0.098400
     10 N1           2.0080    -0.0040    -1.0860 ns         1 EVO       0.002900
     11 C9           1.6990    -0.0010     2.5000 cf         1 EVO       0.053800
     12 C10          2.6900    -0.2270     3.5590 ca         1 EVO      -0.208100
     13 C14          2.6910     0.5620     4.7160 ca         1 EVO       0.427200
     14 N2           3.5810     0.3570     5.6620 nb         1 EVO      -0.582000
     15 C13          4.4990    -0.5860     5.5660 ca         1 EVO       0.413200
     16 C12          4.5670    -1.4090     4.4550 ca         1 EVO      -0.232300
     17 C11          3.6520    -1.2420     3.4310 ca         1 EVO      -0.053000
     18 H1           4.8020     0.0050     2.3450 ha         1 EVO       0.129000
     19 H2           6.8350     0.0180     0.9500 ha         1 EVO       0.108000
     20 H3           6.6460     0.0210    -1.5060 ha         1 EVO       0.104000
     21 H4           4.4400     0.0110    -2.5870 ha         1 EVO       0.106000
     22 H5           1.6720    -0.0110    -2.0290 hn         1 EVO       0.178500
     23 H6           0.6440    -0.0000     2.7470 ha         1 EVO       0.125000
     24 H7           1.9530     1.3460     4.8320 h4         1 EVO      -0.013900
     25 H8           5.2140    -0.7180     6.3700 h4         1 EVO      -0.018900
     26 H9           5.3240    -2.1810     4.3910 ha         1 EVO       0.117000
     27 H10          3.6820    -1.8720     2.5510 ha         1 EVO       0.127000
@<TRIPOS>BOND
     1     1     2 2   
     2     2     3 1   
     3     2    10 1   
     4     3     4 1   
     5     3    11 2   
     6     4     5 ar  
     7     4     9 ar  
     8     5     6 ar  
     9     5    18 1   
    10     6     7 ar  
    11     6    19 1   
    12     7     8 ar  
    13     7    20 1   
    14     8     9 ar  
    15     8    21 1   
    16     9    10 1   
    17    10    22 1   
    18    11    12 1   
    19    11    23 1   
    20    12    13 ar  
    21    12    17 ar  
    22    13    14 ar  
    23    13    24 1   
    24    14    15 ar  
    25    15    16 ar  
    26    15    25 1   
    27    16    17 ar  
    28    16    26 1   
    29    17    27 1   
@<TRIPOS>SUBSTRUCTURE
     1 EVO         1 TEMP              0 ****  ****    0 ROOT
