@<TRIPOS>MOLECULE
EVQ
   68    72     1     0     0
SMALL
bcc


@<TRIPOS>ATOM
      1 C1           0.0000     0.0000     0.0000 c3         1 EVQ       0.244700
      2 C3           2.0470     0.0000     1.2110 ca         1 EVQ       0.157100
      3 C5           1.9220    -0.0060     3.6050 ca         1 EVQ      -0.048000
      4 C6           3.3030    -0.0120     3.6750 ca         1 EVQ      -0.153000
      5 C7           4.0570    -0.0110     2.5170 ca         1 EVQ      -0.068300
      6 C8           3.4320    -0.0050     1.2850 ca         1 EVQ      -0.127000
      7 C10          6.0630     1.4000     2.8800 c3         1 EVQ      -0.012100
      8 C12          7.2120    -1.4740     3.6410 c          1 EVQ       0.550100
      9 C14          7.6510    -2.3940     4.7520 c3         1 EVQ       0.015000
     10 C16          9.3520    -4.0840     3.7290 c3         1 EVQ       0.110300
     11 C19         13.1110    -4.8650     3.3180 ca         1 EVQ      -0.075000
     12 C21         12.6890    -2.8460     4.5730 ca         1 EVQ       0.028000
     13 C22         11.3190    -3.0460     4.4200 ca         1 EVQ      -0.175600
     14 C23         10.1450    -2.2750     4.8800 c          1 EVQ       0.664100
     15 C25         15.0450    -3.5520     4.1810 cp         1 EVQ       0.540800
     16 C27         16.8590    -2.1360     4.3330 ca         1 EVQ       0.727900
     17 C31         20.6610     0.9990     4.1090 c3         1 EVQ       0.220900
     18 C36         17.2600    -4.4020     4.4760 ca         1 EVQ       0.501200
     19 C37         15.9040    -4.6440     4.3300 ca         1 EVQ      -0.360200
     20 O2           1.4290     0.0000     0.0000 os         1 EVQ      -0.306900
     21 C4           1.2920    -0.0000     2.3750 ca         1 EVQ      -0.210000
     22 C9           5.5620    -0.0170     2.5980 c3         1 EVQ       0.078000
     23 N11          5.9890    -0.9100     3.6780 ns         1 EVQ      -0.197900
     24 O13          7.9590    -1.2440     2.7140 o          1 EVQ      -0.636100
     25 N15          9.0090    -2.8730     4.4810 n          1 EVQ      -0.134800
     26 C17         10.8600    -4.1610     3.7120 ca         1 EVQ      -0.080300
     27 C18         11.7500    -5.0590     3.1680 ca         1 EVQ      -0.087000
     28 C20         13.5850    -3.7580     4.0220 cp         1 EVQ      -0.183500
     29 N26         15.5570    -2.3230     4.1900 nb         1 EVQ      -0.676000
     30 N28         17.3590    -0.8440     4.3380 nu         1 EVQ      -0.471900
     31 C29         18.7970    -0.6160     4.4940 c3         1 EVQ       0.135500
     32 C30         19.1730     0.7330     3.8710 c3         1 EVQ      -0.082400
     33 O32         20.9300     0.9730     5.5120 os         1 EVQ      -0.409600
     34 C33         20.6440    -0.2790     6.1390 c3         1 EVQ       0.220900
     35 C34         19.1540    -0.5960     5.9830 c3         1 EVQ      -0.082400
     36 N35         17.6980    -3.1520     4.4700 nb         1 EVQ      -0.700000
     37 Cl1         15.2860    -6.2660     4.3320 cl         1 EVQ       0.007600
     38 H42         -0.3610     0.8850     0.5100 h1         1 EVQ      -0.001967
     39 H41         -0.3610    -0.0010    -1.0210 h1         1 EVQ      -0.001967
     40 H40         -0.3610    -0.8840     0.5120 h1         1 EVQ      -0.001967
     41 H44          1.3340    -0.0070     4.5140 ha         1 EVQ       0.102000
     42 H45          3.7940    -0.0170     4.6400 ha         1 EVQ       0.107000
     43 H46          4.0230    -0.0050     0.3770 ha         1 EVQ       0.124000
     44 H49          7.1000     1.4840     2.5780 hc         1 EVQ       0.015700
     45 H48          5.4670     2.1120     2.3220 hc         1 EVQ       0.015700
     46 H47          5.9770     1.6100     3.9390 hc         1 EVQ       0.015700
     47 H51          7.6390    -1.8560     5.6920 h1         1 EVQ       0.039700
     48 H52          6.9750    -3.2380     4.8100 h1         1 EVQ       0.039700
     49 H53          8.9420    -4.9560     4.2250 h1         1 EVQ       0.028700
     50 H54          8.9740    -4.0120     2.7170 h1         1 EVQ       0.028700
     51 H56         13.8090    -5.5740     2.8890 ha         1 EVQ       0.128000
     52 H57         13.0560    -1.9860     5.1200 ha         1 EVQ       0.129000
     53 H63         20.9210     1.9720     3.7110 h1         1 EVQ       0.008950
     54 H68         17.9540    -5.2250     4.5910 h4         1 EVQ      -0.010900
     55 H43          0.2100     0.0040     2.3200 ha         1 EVQ       0.122000
     56 H39          5.9730    -0.3650     1.6580 h1         1 EVQ       0.059700
     57 H50          5.3580    -1.1310     4.4230 hn         1 EVQ       0.180500
     58 H55         11.3830    -5.9190     2.6210 ha         1 EVQ       0.106000
     59 H58         16.7410    -0.0680     4.2090 hn         1 EVQ       0.305800
     60 H59         19.3500    -1.4070     4.0010 h1         1 EVQ       0.056700
     61 H60         18.9770     0.7060     2.8060 hc         1 EVQ       0.030200
     62 H61         18.5870     1.5190     4.3330 hc         1 EVQ       0.030200
     63 H65         20.8900    -0.2180     7.1930 h1         1 EVQ       0.008950
     64 H64         21.2290    -1.0590     5.6700 h1         1 EVQ       0.008950
     65 H66         18.9450    -1.5650     6.4180 hc         1 EVQ       0.030200
     66 H67         18.5690     0.1660     6.4840 hc         1 EVQ       0.030200
     67 O24         10.1980    -1.2450     5.5250 o          1 EVQ      -0.671500
     68 H62         21.2470     0.2330     3.6160 h1         1 EVQ       0.008950
@<TRIPOS>BOND
     1     1    20 1   
     2     1    38 1   
     3     1    39 1   
     4     1    40 1   
     5     2     6 ar  
     6     2    20 1   
     7     2    21 ar  
     8     3     4 ar  
     9     3    21 ar  
    10     3    41 1   
    11     4     5 ar  
    12     4    42 1   
    13     5     6 ar  
    14     5    22 1   
    15     6    43 1   
    16     7    22 1   
    17     7    44 1   
    18     7    45 1   
    19     7    46 1   
    20     8     9 1   
    21     8    23 1   
    22     8    24 2   
    23     9    25 1   
    24     9    47 1   
    25     9    48 1   
    26    10    25 1   
    27    10    26 1   
    28    10    49 1   
    29    10    50 1   
    30    11    27 ar  
    31    11    28 ar  
    32    11    51 1   
    33    12    13 ar  
    34    12    28 ar  
    35    12    52 1   
    36    13    14 1   
    37    13    26 ar  
    38    14    25 1   
    39    14    67 2   
    40    15    19 ar  
    41    15    28 1   
    42    15    29 ar  
    43    16    29 ar  
    44    16    30 1   
    45    16    36 ar  
    46    17    32 1   
    47    17    33 1   
    48    17    53 1   
    49    17    68 1   
    50    18    19 ar  
    51    18    36 ar  
    52    18    54 1   
    53    19    37 1   
    54    21    55 1   
    55    22    23 1   
    56    22    56 1   
    57    23    57 1   
    58    26    27 ar  
    59    27    58 1   
    60    30    31 1   
    61    30    59 1   
    62    31    32 1   
    63    31    35 1   
    64    31    60 1   
    65    32    61 1   
    66    32    62 1   
    67    33    34 1   
    68    34    35 1   
    69    34    63 1   
    70    34    64 1   
    71    35    65 1   
    72    35    66 1   
@<TRIPOS>SUBSTRUCTURE
     1 EVQ         1 TEMP              0 ****  ****    0 ROOT
