@<TRIPOS>MOLECULE
molecule
   68    72     1     0     0
SMALL
bcc


@<TRIPOS>ATOM
      1 C1           0.0000     0.0000     0.0000 c3         1 EVQ       0.128700
      2 C3           2.0470     0.0000     1.2110 ca         1 EVQ       0.147100
      3 C5           1.9220    -0.0060     3.6050 ca         1 EVQ      -0.085000
      4 C6           3.3030    -0.0120     3.6750 ca         1 EVQ      -0.170000
      5 C7           4.0570    -0.0110     2.5170 ca         1 EVQ      -0.062300
      6 C8           3.4320    -0.0050     1.2850 ca         1 EVQ      -0.148000
      7 C10          6.0630     1.4000     2.8800 c3         1 EVQ      -0.103100
      8 C12          7.2120    -1.4740     3.6410 c          1 EVQ       0.634100
      9 C14          7.6510    -2.3940     4.7520 c3         1 EVQ       0.063000
     10 C16          9.3520    -4.0840     3.7290 c3         1 EVQ       0.144300
     11 C19         13.1110    -4.8650     3.3180 ca         1 EVQ      -0.074000
     12 C21         12.6890    -2.8460     4.5730 ca         1 EVQ      -0.007000
     13 C22         11.3190    -3.0460     4.4200 ca         1 EVQ      -0.166600
     14 C23         10.1450    -2.2750     4.8800 c          1 EVQ       0.727100
     15 C25         15.0450    -3.5520     4.1810 cp         1 EVQ       0.579800
     16 C27         16.8590    -2.1360     4.3330 ca         1 EVQ       0.949900
     17 C31         20.6610     0.9990     4.1090 c3         1 EVQ       0.140900
     18 C36         17.2600    -4.4020     4.4760 ca         1 EVQ       0.514200
     19 C37         15.9040    -4.6440     4.3300 ca         1 EVQ      -0.290200
     20 O2           1.4290     0.0000     0.0000 os         1 EVQ      -0.327900
     21 C4           1.2920    -0.0000     2.3750 ca         1 EVQ      -0.220000
     22 C9           5.5620    -0.0170     2.5980 c3         1 EVQ       0.164000
     23 N11          5.9890    -0.9100     3.6780 ns         1 EVQ      -0.584900
     24 O13          7.9590    -1.2440     2.7140 o          1 EVQ      -0.591100
     25 N15          9.0090    -2.8730     4.4810 n          1 EVQ      -0.476800
     26 C17         10.8600    -4.1610     3.7120 ca         1 EVQ      -0.069300
     27 C18         11.7500    -5.0590     3.1680 ca         1 EVQ      -0.127000
     28 C20         13.5850    -3.7580     4.0220 cp         1 EVQ      -0.175500
     29 N26         15.5570    -2.3230     4.1900 nb         1 EVQ      -0.783000
     30 N28         17.3590    -0.8440     4.3380 nu         1 EVQ      -0.887900
     31 C29         18.7970    -0.6160     4.4940 c3         1 EVQ       0.249500
     32 C30         19.1730     0.7330     3.8710 c3         1 EVQ      -0.134400
     33 O32         20.9300     0.9730     5.5120 os         1 EVQ      -0.422600
     34 C33         20.6440    -0.2790     6.1390 c3         1 EVQ       0.140900
     35 C34         19.1540    -0.5960     5.9830 c3         1 EVQ      -0.134400
     36 N35         17.6980    -3.1520     4.4700 nb         1 EVQ      -0.797000
     37 Cl1         15.2860    -6.2660     4.3320 cl         1 EVQ      -0.093400
     38 H42         -0.3610     0.8850     0.5100 h1         1 EVQ       0.042367
     39 H41         -0.3610    -0.0010    -1.0210 h1         1 EVQ       0.042367
     40 H40         -0.3610    -0.8840     0.5120 h1         1 EVQ       0.042367
     41 H44          1.3340    -0.0070     4.5140 ha         1 EVQ       0.131000
     42 H45          3.7940    -0.0170     4.6400 ha         1 EVQ       0.127000
     43 H46          4.0230    -0.0050     0.3770 ha         1 EVQ       0.149000
     44 H49          7.1000     1.4840     2.5780 hc         1 EVQ       0.048367
     45 H48          5.4670     2.1120     2.3220 hc         1 EVQ       0.048367
     46 H47          5.9770     1.6100     3.9390 hc         1 EVQ       0.048367
     47 H51          7.6390    -1.8560     5.6920 h1         1 EVQ       0.076200
     48 H52          6.9750    -3.2380     4.8100 h1         1 EVQ       0.076200
     49 H53          8.9420    -4.9560     4.2250 h1         1 EVQ       0.064200
     50 H54          8.9740    -4.0120     2.7170 h1         1 EVQ       0.064200
     51 H56         13.8090    -5.5740     2.8890 ha         1 EVQ       0.157000
     52 H57         13.0560    -1.9860     5.1200 ha         1 EVQ       0.165000
     53 H63         20.9210     1.9720     3.7110 h1         1 EVQ       0.050200
     54 H68         17.9540    -5.2250     4.5910 h4         1 EVQ       0.039100
     55 H43          0.2100     0.0040     2.3200 ha         1 EVQ       0.136000
     56 H39          5.9730    -0.3650     1.6580 h1         1 EVQ       0.085700
     57 H50          5.3580    -1.1310     4.4230 hn         1 EVQ       0.314500
     58 H55         11.3830    -5.9190     2.6210 ha         1 EVQ       0.136000
     59 H58         16.7410    -0.0680     4.2090 hn         1 EVQ       0.461800
     60 H59         19.3500    -1.4070     4.0010 h1         1 EVQ       0.078700
     61 H60         18.9770     0.7060     2.8060 hc         1 EVQ       0.059700
     62 H61         18.5870     1.5190     4.3330 hc         1 EVQ       0.059700
     63 H65         20.8900    -0.2180     7.1930 h1         1 EVQ       0.050200
     64 H64         21.2290    -1.0590     5.6700 h1         1 EVQ       0.050200
     65 H66         18.9450    -1.5650     6.4180 hc         1 EVQ       0.059700
     66 H67         18.5690     0.1660     6.4840 hc         1 EVQ       0.059700
     67 O24         10.1980    -1.2450     5.5250 o          1 EVQ      -0.625500
     68 H62         21.2470     0.2330     3.6160 h1         1 EVQ       0.050200
@<TRIPOS>BOND
     1    33    34 1
     2    33    17 1
     3    34    35 1
     4    35    31 1
     5    17    32 1
     6    32    31 1
     7    31    30 1
     8    30    16 1
     9    16    29 ar
    10    16    36 ar
    11    29    15 ar
    12    36    18 ar
    13    15    28 1
    14    15    19 ar
    15    18    19 ar
    16    28    12 ar
    17    28    11 ar
    18    12    13 ar
    19    19    37 1
    20    67    14 2
    21    11    27 ar
    22    13    14 1
    23    13    26 ar
    24    14    25 1
    25    27    26 ar
    26    26    10 1
    27    25    10 1
    28    25     9 1
    29     9     8 1
    30     1    20 1
    31     8    23 1
    32     8    24 2
    33    23    22 1
    34    20     2 1
    35     6     2 ar
    36     6     5 ar
    37     7    22 1
    38    22     5 1
    39     2    21 ar
    40     5     4 ar
    41    21     3 ar
    42     4     3 ar
    43     1    38 1
    44     1    39 1
    45     1    40 1
    46     3    41 1
    47     4    42 1
    48     6    43 1
    49     7    44 1
    50     7    45 1
    51     7    46 1
    52     9    47 1
    53     9    48 1
    54    10    49 1
    55    10    50 1
    56    11    51 1
    57    12    52 1
    58    17    68 1
    59    17    53 1
    60    18    54 1
    61    21    55 1
    62    22    56 1
    63    23    57 1
    64    27    58 1
    65    30    59 1
    66    31    60 1
    67    32    61 1
    68    32    62 1
    69    34    63 1
    70    34    64 1
    71    35    65 1
    72    35    66 1
@<TRIPOS>SUBSTRUCTURE
     1 EVQ         1 TEMP              0 ****  ****    0 ROOT
