@<TRIPOS>MOLECULE
molecule
   42    46     1     0     0
SMALL
bcc


@<TRIPOS>ATOM
      1 CAA          0.0000     0.0000     0.0000 c3         1 EVS      -0.060900
      2 CAE          1.5070     0.0000     0.0000 c2         1 EVS      -0.156200
      3 CAP          2.1620     0.0000     1.1350 c2         1 EVS      -0.181400
      4 CAK          3.6830    -0.0000     1.2120 c3         1 EVS       0.204000
      5 NAY          4.0100    -0.1650     2.6450 n3         1 EVS      -0.693600
      6 CAX          3.4160    -1.4010     3.1650 c3         1 EVS       0.182500
      7 CAL          3.9890    -1.7440     4.5390 c3         1 EVS      -0.000200
      8 CAR          4.0610    -0.4910     5.3720 cc         1 EVS      -0.146400
      9 CAU          4.3230    -0.3450     6.7870 ca         1 EVS      -0.097800
     10 CAJ          4.5840    -1.2680     7.8050 ca         1 EVS      -0.073000
     11 CAH          4.7920    -0.7610     9.0640 ca         1 EVS      -0.158000
     12 CAG          4.7490     0.5980     9.3280 ca         1 EVS      -0.107000
     13 CAI          4.4930     1.5330     8.3390 ca         1 EVS      -0.147000
     14 CAT          4.2790     1.0490     7.0510 ca         1 EVS      -0.037200
     15 NAN          4.0080     1.6790     5.8700 na         1 EVS      -0.168400
     16 CAS          3.8770     0.7520     4.8730 cd         1 EVS      -0.069300
     17 CAW          3.5660     1.0100     3.4140 c3         1 EVS       0.240700
     18 CAM          2.0490     1.1840     3.2830 c3         1 EVS      -0.113400
     19 CAV          1.4680     0.0090     2.4930 c3         1 EVS      -0.014500
     20 CAZ          1.8950    -1.2930     3.2100 c3         1 EVS      -0.214700
     21 CAF          1.4330    -1.2530     4.6440 c          1 EVS       0.574900
     22 OAC          0.6870    -2.1070     5.0610 o          1 EVS      -0.530100
     23 HAA         -0.3610    -0.8990     0.4840 hc         1 EVS       0.043367
     24 HAAA        -0.3610     0.8690     0.5370 hc         1 EVS       0.043367
     25 HAAB        -0.3610     0.0310    -1.0210 hc         1 EVS       0.043367
     26 HAE          2.0490    -0.0000    -0.9380 ha         1 EVS       0.128000
     27 HAK          4.0870    -0.8260     0.6390 h1         1 EVS       0.068200
     28 HAKA         4.0760     0.9400     0.8450 h1         1 EVS       0.068200
     29 HAX          3.6730    -2.2050     2.4870 h1         1 EVS       0.068700
     30 HAL          3.3470    -2.4660     5.0280 hc         1 EVS       0.062700
     31 HALA         4.9840    -2.1570     4.4220 hc         1 EVS       0.062700
     32 HAJ          4.6190    -2.3330     7.6090 ha         1 EVS       0.138000
     33 HAH          4.9960    -1.4470     9.8780 ha         1 EVS       0.126000
     34 HAG          4.9200     0.9400    10.3410 ha         1 EVS       0.127000
     35 HAI          4.4620     2.5940     8.5570 ha         1 EVS       0.131000
     36 HNAN         3.9190     2.6690     5.7510 hn         1 EVS       0.296700
     37 HAW          4.0780     1.9010     3.0720 h1         1 EVS       0.074700
     38 HAM          1.6020     1.2130     4.2690 hc         1 EVS       0.053700
     39 HAMA         1.8350     2.1100     2.7630 hc         1 EVS       0.053700
     40 HAV          0.3920     0.0810     2.3950 hc         1 EVS       0.076700
     41 HAZ          1.4540    -2.1460     2.7090 hc         1 EVS       0.082700
     42 HAF          1.7170    -0.4240     5.2810 h4         1 EVS       0.018200
@<TRIPOS>BOND
     1     1     2 1
     2     2     3 2
     3     3     4 1
     4     3    19 1
     5     4     5 1
     6     5     6 1
     7     5    17 1
     8     6     7 1
     9     6    20 1
    10     7     8 1
    11     8     9 1
    12     8    16 2
    13     9    10 ar
    14     9    14 ar
    15    10    11 ar
    16    11    12 ar
    17    12    13 ar
    18    13    14 ar
    19    14    15 1
    20    15    16 1
    21    16    17 1
    22    17    18 1
    23    18    19 1
    24    19    20 1
    25    20    21 1
    26    21    22 2
    27     1    23 1
    28     1    24 1
    29     1    25 1
    30     2    26 1
    31     4    27 1
    32     4    28 1
    33     6    29 1
    34     7    30 1
    35     7    31 1
    36    10    32 1
    37    11    33 1
    38    12    34 1
    39    13    35 1
    40    15    36 1
    41    17    37 1
    42    18    38 1
    43    18    39 1
    44    19    40 1
    45    20    41 1
    46    21    42 1
@<TRIPOS>SUBSTRUCTURE
     1 EVS         1 TEMP              0 ****  ****    0 ROOT
