@<TRIPOS>MOLECULE
molecule
   79    78     1     0     0
SMALL
bcc


@<TRIPOS>ATOM
      1 C7           0.0000     0.0000     0.0000 c          1 EVT       0.658100
      2 C9           1.5070     0.0000     0.0000 c3         1 EVT      -0.166400
      3 C10          2.0170     0.0000     1.4430 c3         1 EVT      -0.058400
      4 C11          3.5470    -0.0000     1.4430 c3         1 EVT       0.000700
      5 C13          7.1620    -2.3690    -0.8800 c3         1 EVT      -0.063400
      6 C14          7.6720    -3.6770    -1.4890 c3         1 EVT      -0.087400
      7 O8          -0.6070    -0.0000     1.0510 o          1 EVT      -0.640100
      8 C15          9.0750    -3.4590    -2.0600 c3         1 EVT      -0.080400
      9 N6          -0.6730     0.0070    -1.1670 ns         1 EVT      -0.541900
     10 C16          9.5850    -4.7670    -2.6710 c3         1 EVT      -0.083400
     11 C17         10.9880    -4.5500    -3.2420 c3         1 EVT      -0.082400
     12 C18         11.4990    -5.8560    -3.8520 c3         1 EVT      -0.082400
     13 C19         12.9010    -5.6400    -4.4230 c3         1 EVT      -0.082400
     14 C20         13.4110    -6.9470    -5.0330 c3         1 EVT      -0.082400
     15 C21         14.8140    -6.7290    -5.6050 c3         1 EVT      -0.082400
     16 C22         15.3230    -8.0370    -6.2150 c3         1 EVT      -0.082400
     17 C23          4.0490     0.1230     2.8580 c          1 EVT       0.893600
     18 O24          4.7440    -0.7450     3.3310 o          1 EVT      -0.858300
     19 N25          4.0360    -1.2510     0.8590 ns         1 EVT      -0.531900
     20 C26          5.2580    -1.2990     0.2930 c          1 EVT       0.659100
     21 O26          3.7250     1.1980     3.5940 o          1 EVT      -0.858300
     22 O27          5.9520    -0.3050     0.2660 o          1 EVT      -0.645100
     23 C29         16.7260    -7.8190    -6.7860 c3         1 EVT      -0.082400
     24 C30         17.2370    -9.1270    -7.3960 c3         1 EVT      -0.082400
     25 C31         18.6400    -8.9100    -7.9670 c3         1 EVT      -0.084400
     26 C32         19.1500   -10.2160    -8.5770 c3         1 EVT      -0.092100
     27 C33         -2.7460     2.7040    -3.8160 c          1 EVT       0.891600
     28 O34         -3.3640     2.0270    -4.6040 o          1 EVT      -0.882800
     29 C36         -2.6480     0.6230    -2.4720 c3         1 EVT      -0.059400
     30 C37         -2.1390     0.0060    -1.1670 c3         1 EVT       0.001700
     31 C38         -2.6410    -1.4100    -1.0520 c          1 EVT       0.894600
     32 O39         -3.9610    -1.6540    -1.0310 o          1 EVT      -0.870300
     33 O40         -1.8560    -2.3250    -0.9750 o          1 EVT      -0.870300
     34 H93          1.8680     0.8850    -0.5110 hc         1 EVT       0.041200
     35 H92          1.8680    -0.8850    -0.5110 hc         1 EVT       0.041200
     36 H103         1.6560     0.8850     1.9530 hc         1 EVT       0.069700
     37 H102         1.6550    -0.8840     1.9530 hc         1 EVT       0.069700
     38 H11          3.9080     0.8360     0.8580 h1         1 EVT       0.068700
     39 H122         5.0910    -2.9000    -1.1010 hc         1 EVT       0.048700
     40 H123         5.7960    -3.3530     0.4570 hc         1 EVT       0.048700
     41 H133         7.8300    -2.0550    -0.0870 hc         1 EVT       0.055200
     42 H132         7.1260    -1.6040    -1.6460 hc         1 EVT       0.055200
     43 H143         7.7090    -4.4420    -0.7230 hc         1 EVT       0.034700
     44 H142         7.0040    -3.9910    -2.2820 hc         1 EVT       0.034700
     45 H153         9.7430    -3.1460    -1.2680 hc         1 EVT       0.041200
     46 H152         9.0380    -2.6930    -2.8260 hc         1 EVT       0.041200
     47 H6          -0.1730    -0.0310    -2.0330 hn         1 EVT       0.295500
     48 H163         8.9170    -5.0810    -3.4640 hc         1 EVT       0.038200
     49 H162         9.6220    -5.5330    -1.9050 hc         1 EVT       0.038200
     50 H173        11.6560    -4.2360    -2.4490 hc         1 EVT       0.039700
     51 H172        10.9520    -3.7840    -4.0080 hc         1 EVT       0.039700
     52 H183        11.5350    -6.6220    -3.0860 hc         1 EVT       0.039700
     53 H182        10.8300    -6.1700    -4.6450 hc         1 EVT       0.039700
     54 H193        12.8650    -4.8740    -5.1880 hc         1 EVT       0.039700
     55 H192        13.5690    -5.3270    -3.6300 hc         1 EVT       0.039700
     56 H203        12.7430    -7.2600    -5.8260 hc         1 EVT       0.040200
     57 H202        13.4470    -7.7130    -4.2680 hc         1 EVT       0.040200
     58 H213        15.4820    -6.4160    -4.8120 hc         1 EVT       0.040200
     59 H212        14.7770    -5.9630    -6.3700 hc         1 EVT       0.040200
     60 H223        15.3600    -8.8020    -5.4490 hc         1 EVT       0.040200
     61 H222        14.6550    -8.3500    -7.0080 hc         1 EVT       0.040200
     62 H25          3.4740    -2.0780     0.9060 hn         1 EVT       0.303500
     63 H293        16.6900    -7.0540    -7.5520 hc         1 EVT       0.040200
     64 H292        17.3940    -7.5050    -5.9930 hc         1 EVT       0.040200
     65 H303        17.2740    -9.8920    -6.6300 hc         1 EVT       0.040200
     66 H302        16.5690    -9.4410    -8.1880 hc         1 EVT       0.040200
     67 H313        19.3080    -8.5960    -7.1740 hc         1 EVT       0.039200
     68 H312        18.6030    -8.1440    -8.7320 hc         1 EVT       0.039200
     69 H321        19.1860   -10.9830    -7.8120 hc         1 EVT       0.030033
     70 H323        20.1430   -10.0630    -8.9820 hc         1 EVT       0.030033
     71 H322        18.4820   -10.5300    -9.3710 hc         1 EVT       0.030033
     72 H353        -1.1650     2.1780    -2.4920 hc         1 EVT       0.026700
     73 H352        -2.6770     2.6250    -1.6900 hc         1 EVT       0.026700
     74 H363        -3.7280     0.5420    -2.5120 hc         1 EVT       0.052700
     75 H362        -2.2160     0.0950    -3.3140 hc         1 EVT       0.052700
     76 H37         -2.5010     0.5870    -0.3280 h1         1 EVT       0.066700
     77 OXT         -2.5080     3.9970    -4.0860 o          1 EVT      -0.882800
     78 C35         -2.2440     2.0970    -2.5320 c3         1 EVT      -0.184400
     79 C12          5.7590    -2.5870    -0.3080 c3         1 EVT      -0.162400
@<TRIPOS>BOND
     1    28    27 1
     2    27    78 1
     3    78    29 1
     4    29    30 1
     5    18    17 1
     6    79     5 1
     7    79    20 1
     8    19    20 1
     9    19     4 1
    10     6     5 1
    11     6     8 1
    12    30     9 1
    13    30    31 1
    14    20    22 2
    15     3     4 1
    16     3     2 1
    17     9     1 1
    18    17     4 1
    19    17    21 1
    20     8    10 1
    21    10    11 1
    22     1     2 1
    23     1     7 2
    24    11    12 1
    25    12    13 1
    26    31    33 1
    27    31    32 1
    28    13    14 1
    29    14    15 1
    30    15    16 1
    31    16    23 1
    32    23    24 1
    33    24    25 1
    34    25    26 1
    35     2    34 1
    36     2    35 1
    37     3    36 1
    38     3    37 1
    39     4    38 1
    40    79    39 1
    41    79    40 1
    42     5    41 1
    43     5    42 1
    44     6    43 1
    45     6    44 1
    46     8    45 1
    47     8    46 1
    48     9    47 1
    49    10    48 1
    50    10    49 1
    51    11    50 1
    52    11    51 1
    53    12    52 1
    54    12    53 1
    55    13    54 1
    56    13    55 1
    57    14    56 1
    58    14    57 1
    59    15    58 1
    60    15    59 1
    61    16    60 1
    62    16    61 1
    63    19    62 1
    64    23    63 1
    65    23    64 1
    66    24    65 1
    67    24    66 1
    68    25    67 1
    69    25    68 1
    70    26    69 1
    71    26    70 1
    72    26    71 1
    73    78    72 1
    74    78    73 1
    75    29    74 1
    76    29    75 1
    77    30    76 1
    78    27    77 1
@<TRIPOS>SUBSTRUCTURE
     1 EVT         1 TEMP              0 ****  ****    0 ROOT
