@<TRIPOS>MOLECULE
EVY
   61    61     1     0     0
SMALL
bcc


@<TRIPOS>ATOM
      1 C19          0.0000     0.0000     0.0000 c3         1 EVY       0.005900
      2 C18          1.5300     0.0000     0.0000 c3         1 EVY      -0.028400
      3 C17          2.0390     0.0000     1.4420 c3         1 EVY      -0.030400
      4 C16          3.5700     0.0000     1.4430 c3         1 EVY      -0.029400
      5 C15          4.0790     0.0000     2.8850 c3         1 EVY      -0.030400
      6 C14          5.6100     0.0010     2.8850 c3         1 EVY      -0.024400
      7 C13          6.1190     0.0010     4.3270 c3         1 EVY      -0.042400
      8 C11          7.6500     0.0010     4.3280 c3         1 EVY      -0.025400
      9 C10          8.1590     0.0010     5.7700 c3         1 EVY      -0.116700
     10 C22          9.6840     0.1260     5.7720 c3         1 EVY      -0.017400
     11 C23         10.0840     1.4900     5.2060 c3         1 EVY      -0.036400
     12 C24         11.5990     1.6690     5.3280 c3         1 EVY      -0.028400
     13 C25         11.9990     3.0330     4.7620 c3         1 EVY      -0.029400
     14 C26         13.5130     3.2120     4.8830 c3         1 EVY      -0.028400
     15 C27         13.9130     4.5760     4.3170 c3         1 EVY       0.006900
     16 C08          7.7610    -1.2860     6.4440 c          1 EVY       0.581100
     17 O09          7.7550    -2.3240     5.8150 o          1 EVY      -0.619100
     18 N07          7.4110    -1.2860     7.7460 ns         1 EVY      -0.193900
     19 C01          6.9280    -2.5170     8.3750 c3         1 EVY      -0.092300
     20 C05          7.1090    -2.4440     9.9080 c3         1 EVY      -0.075400
     21 C04          5.6690    -2.1610    10.3920 c3         1 EVY       0.217400
     22 OAP          4.8170    -2.7320     9.3550 os         1 EVY      -0.391900
     23 C02          5.4360    -2.6660     8.1680 c          1 EVY       0.774600
     24 O06          4.8860    -2.7160     7.0940 o          1 EVY      -0.574500
     25 H1          -0.3610    -0.8840     0.5110 hc         1 EVY      -0.000300
     26 H2          -0.3610    -0.0000    -1.0210 hc         1 EVY      -0.000300
     27 H3          -0.3610     0.8850     0.5110 hc         1 EVY      -0.000300
     28 H4           1.8910    -0.8850    -0.5110 hc         1 EVY       0.011700
     29 H5           1.8910     0.8850    -0.5110 hc         1 EVY       0.011700
     30 H6           1.6780    -0.8850     1.9530 hc         1 EVY       0.015200
     31 H7           1.6780     0.8840     1.9530 hc         1 EVY       0.015200
     32 H8           3.9310    -0.8840     0.9320 hc         1 EVY       0.013700
     33 H9           3.9310     0.8850     0.9320 hc         1 EVY       0.013700
     34 H10          3.7180     0.8850     3.3950 hc         1 EVY       0.017200
     35 H11          3.7180    -0.8840     3.3950 hc         1 EVY       0.017200
     36 H12          5.9710    -0.8840     2.3740 hc         1 EVY       0.014200
     37 H13          5.9710     0.8850     2.3750 hc         1 EVY       0.014200
     38 H14          5.7580    -0.8840     4.8380 hc         1 EVY       0.023200
     39 H15          5.7580     0.8850     4.8380 hc         1 EVY       0.023200
     40 H16          8.0110     0.8850     3.8170 hc         1 EVY       0.032200
     41 H17          8.0110    -0.8840     3.8170 hc         1 EVY       0.032200
     42 H18          7.7270     0.8380     6.3050 hc         1 EVY       0.029700
     43 H19         10.1120    -0.6580     5.1600 hc         1 EVY       0.021200
     44 H20         10.0520     0.0350     6.7870 hc         1 EVY       0.021200
     45 H21          9.7970     1.5470     4.1630 hc         1 EVY       0.019700
     46 H22          9.5820     2.2730     5.7620 hc         1 EVY       0.019700
     47 H23         11.8860     1.6130     6.3720 hc         1 EVY       0.015200
     48 H24         12.1010     0.8870     4.7730 hc         1 EVY       0.015200
     49 H25         11.7100     3.0900     3.7200 hc         1 EVY       0.014700
     50 H26         11.4970     3.8160     5.3180 hc         1 EVY       0.014700
     51 H27         14.0140     2.4290     4.3270 hc         1 EVY       0.011700
     52 H28         13.8010     3.1550     5.9260 hc         1 EVY       0.011700
     53 H29         13.6250     4.6320     3.2740 hc         1 EVY       0.000700
     54 H30         14.9850     4.7020     4.4020 hc         1 EVY       0.000700
     55 H31         13.4120     5.3590     4.8730 hc         1 EVY       0.000700
     56 H32          7.4950    -0.4480     8.2860 hn         1 EVY       0.176500
     57 H33          7.4490    -3.3800     7.9770 h1         1 EVY       0.085700
     58 H34          7.7720    -1.6310    10.1790 hc         1 EVY       0.037700
     59 H35          7.4660    -3.3900    10.2980 hc         1 EVY       0.037700
     60 H36          5.4870    -2.6520    11.3410 h1         1 EVY       0.020200
     61 H37          5.5010    -1.0940    10.4720 h1         1 EVY       0.020200
@<TRIPOS>BOND
     1     1     2 1   
     2     1    25 1   
     3     1    26 1   
     4     1    27 1   
     5     2     3 1   
     6     2    28 1   
     7     2    29 1   
     8     3     4 1   
     9     3    30 1   
    10     3    31 1   
    11     4     5 1   
    12     4    32 1   
    13     4    33 1   
    14     5     6 1   
    15     5    34 1   
    16     5    35 1   
    17     6     7 1   
    18     6    36 1   
    19     6    37 1   
    20     7     8 1   
    21     7    38 1   
    22     7    39 1   
    23     8     9 1   
    24     8    40 1   
    25     8    41 1   
    26     9    10 1   
    27     9    16 1   
    28     9    42 1   
    29    10    11 1   
    30    10    43 1   
    31    10    44 1   
    32    11    12 1   
    33    11    45 1   
    34    11    46 1   
    35    12    13 1   
    36    12    47 1   
    37    12    48 1   
    38    13    14 1   
    39    13    49 1   
    40    13    50 1   
    41    14    15 1   
    42    14    51 1   
    43    14    52 1   
    44    15    53 1   
    45    15    54 1   
    46    15    55 1   
    47    16    17 2   
    48    16    18 1   
    49    18    19 1   
    50    18    56 1   
    51    19    20 1   
    52    19    23 1   
    53    19    57 1   
    54    20    21 1   
    55    20    58 1   
    56    20    59 1   
    57    21    22 1   
    58    21    60 1   
    59    21    61 1   
    60    22    23 1   
    61    23    24 2   
@<TRIPOS>SUBSTRUCTURE
     1 EVY         1 TEMP              0 ****  ****    0 ROOT
