@<TRIPOS>MOLECULE
EW1
   73    78     1     0     0
SMALL
bcc


@<TRIPOS>ATOM
      1 C4           0.0000     0.0000     0.0000 ca         1 EW1      -0.068900
      2 C5           0.6510     0.0100    -2.0710 cc         1 EW1       0.244700
      3 C6           3.1620     0.0040    -1.8260 cy         1 EW1      -0.116000
      4 N1           1.7880     0.0030    -1.3200 na         1 EW1       0.333700
      5 C7           3.4860     1.2010    -2.7380 cy         1 EW1       0.057000
      6 C8           3.3650    -0.8760    -3.0730 cy         1 EW1       0.057000
      7 N2           3.0520     0.3400    -3.8540 nj         1 EW1      -0.216800
      8 C9           2.5650     0.5700    -5.0900 c          1 EW1       0.691700
      9 C10          2.2250    -0.5610    -5.9690 cc         1 EW1      -0.258600
     10 C11          1.7260    -0.4940    -7.2400 cd         1 EW1      -0.227300
     11 C12          1.0350    -2.0920    -9.0240 c3         1 EW1      -0.055700
     12 N3           1.5530    -1.7480    -7.6970 na         1 EW1       0.447900
     13 C13          2.1970    -2.2050   -10.0130 c3         1 EW1      -0.071700
     14 C14          3.0920    -3.3820    -9.6180 c3         1 EW1      -0.029400
     15 C15          4.2180    -3.5280   -10.6440 c3         1 EW1       0.136800
     16 N4           3.6410    -3.7520   -11.9760 n3         1 EW1      -0.521600
     17 O            2.4070     1.7120    -5.4800 o          1 EW1      -0.650100
     18 C3           1.4060     0.0000     0.0000 ca         1 EW1      -0.236200
     19 C2           2.0740     0.0000     1.2220 ca         1 EW1      -0.218300
     20 N           -0.3950     0.0020    -1.2960 nd         1 EW1      -0.488100
     21 C27         -0.6700    -0.0070     1.2330 ca         1 EW1       0.569200
     22 N5          -2.0580    -0.0150     1.2690 nv         1 EW1      -0.648500
     23 N6           0.0200    -0.0070     2.3600 nb         1 EW1      -0.603000
     24 C1           1.3440    -0.0020     2.3780 ca         1 EW1       0.390600
     25 C            2.0630    -0.0030     3.7030 c3         1 EW1      -0.039400
     26 C26          2.3600    -1.9900    -5.6610 cc         1 EW1      -0.167000
     27 C25          1.9310    -2.6530    -6.7490 cd         1 EW1      -0.317300
     28 C17          1.6480    -2.4410   -11.4230 c3         1 EW1      -0.029400
     29 C16          2.8160    -2.6140   -12.3970 c3         1 EW1       0.136800
     30 C18          4.6910    -4.0340   -12.9630 c3         1 EW1       0.181700
     31 C24          5.5710    -5.1600   -12.4630 c2         1 EW1      -0.185200
     32 C23          5.0420    -6.2450   -11.9930 c2         1 EW1      -0.114200
     33 C22          3.5370    -6.4000   -11.9380 c3         1 EW1      -0.046200
     34 C21          3.0130    -6.5920   -13.3630 c3         1 EW1      -0.003400
     35 C20          2.7780    -5.2510   -14.0350 c3         1 EW1      -0.041400
     36 C19          4.0520    -4.4650   -14.2860 c3         1 EW1      -0.021400
     37 H1           0.6210     0.0210    -3.1540 h5         1 EW1       0.042800
     38 H2           3.9180    -0.1620    -1.0680 h1         1 EW1       0.064700
     39 H3           2.8330     2.0490    -2.5750 h1         1 EW1       0.042200
     40 H4           4.5430     1.4390    -2.7690 h1         1 EW1       0.042200
     41 H5           4.3880    -1.2100    -3.1960 h1         1 EW1       0.042200
     42 H6           2.6160    -1.6520    -3.1730 h1         1 EW1       0.042200
     43 H7           1.5040     0.4160    -7.7860 h4         1 EW1       0.161000
     44 H8           0.5110    -3.0390    -8.9730 h1         1 EW1       0.040700
     45 H9           0.3520    -1.3190    -9.3560 h1         1 EW1       0.040700
     46 H10          2.7790    -1.2910   -10.0010 hc         1 EW1       0.041700
     47 H11          2.5030    -4.2910    -9.5970 hc         1 EW1       0.025950
     48 H12          3.5180    -3.1980    -8.6390 hc         1 EW1       0.025950
     49 H13          4.8120    -2.6220   -10.6570 h1         1 EW1       0.021200
     50 H14          4.8420    -4.3720   -10.3750 h1         1 EW1       0.021200
     51 H16          3.1570     0.0040     1.2560 ha         1 EW1       0.111000
     52 H17         -2.5620     0.8490     1.3000 hn         1 EW1       0.277300
     53 H18         -2.5530    -0.8840     1.2950 hn         1 EW1       0.277300
     54 H19          2.6830    -0.8880     3.7760 hc         1 EW1       0.012033
     55 H20          2.6840     0.8810     3.7770 hc         1 EW1       0.012033
     56 H21          1.3370    -0.0030     4.5070 hc         1 EW1       0.012033
     57 H22          2.7270    -2.4240    -4.7390 ha         1 EW1       0.133000
     58 H23          1.8960    -3.7300    -6.8570 h4         1 EW1       0.149000
     59 H24          1.0390    -3.3360   -11.4280 hc         1 EW1       0.025950
     60 H25          1.0500    -1.5890   -11.7240 hc         1 EW1       0.025950
     61 H26          3.4190    -1.7140   -12.3980 h1         1 EW1       0.021200
     62 H27          2.4300    -2.7970   -13.3920 h1         1 EW1       0.021200
     63 H28          5.2940    -3.1480   -13.1240 h1         1 EW1       0.009700
     64 H29          6.6490    -5.0590   -12.5010 ha         1 EW1       0.103000
     65 H30          5.6800    -7.0450   -11.6370 ha         1 EW1       0.095000
     66 H31          3.0960    -5.5090   -11.5070 hc         1 EW1       0.045700
     67 H32          3.2830    -7.2650   -11.3380 hc         1 EW1       0.045700
     68 H33          2.0790    -7.1400   -13.3270 hc         1 EW1       0.010700
     69 H34          3.7400    -7.1540   -13.9360 hc         1 EW1       0.010700
     70 H35          2.1260    -4.6580   -13.4040 hc         1 EW1       0.020700
     71 H36          2.2870    -5.4230   -14.9850 hc         1 EW1       0.020700
     72 H37          3.8170    -3.5830   -14.8710 hc         1 EW1       0.017700
     73 H38          4.7510    -5.0860   -14.8330 hc         1 EW1       0.017700
@<TRIPOS>BOND
     1     1    18 ar  
     2     1    20 1   
     3     1    21 ar  
     4     2     4 1   
     5     2    20 2   
     6     2    37 1   
     7     3     4 1   
     8     3     5 1   
     9     3     6 1   
    10     3    38 1   
    11     4    18 1   
    12     5     7 1   
    13     5    39 1   
    14     5    40 1   
    15     6     7 1   
    16     6    41 1   
    17     6    42 1   
    18     7     8 1   
    19     8     9 1   
    20     8    17 2   
    21     9    10 2   
    22     9    26 1   
    23    10    12 1   
    24    10    43 1   
    25    11    12 1   
    26    11    13 1   
    27    11    44 1   
    28    11    45 1   
    29    12    27 1   
    30    13    14 1   
    31    13    28 1   
    32    13    46 1   
    33    14    15 1   
    34    14    47 1   
    35    14    48 1   
    36    15    16 1   
    37    15    49 1   
    38    15    50 1   
    39    16    29 1   
    40    16    30 1   
    41    18    19 ar  
    42    19    24 ar  
    43    19    51 1   
    44    21    22 1   
    45    21    23 ar  
    46    22    52 1   
    47    22    53 1   
    48    23    24 ar  
    49    24    25 1   
    50    25    54 1   
    51    25    55 1   
    52    25    56 1   
    53    26    27 2   
    54    26    57 1   
    55    27    58 1   
    56    28    29 1   
    57    28    59 1   
    58    28    60 1   
    59    29    61 1   
    60    29    62 1   
    61    30    31 1   
    62    30    36 1   
    63    30    63 1   
    64    31    32 2   
    65    31    64 1   
    66    32    33 1   
    67    32    65 1   
    68    33    34 1   
    69    33    66 1   
    70    33    67 1   
    71    34    35 1   
    72    34    68 1   
    73    34    69 1   
    74    35    36 1   
    75    35    70 1   
    76    35    71 1   
    77    36    72 1   
    78    36    73 1   
@<TRIPOS>SUBSTRUCTURE
     1 EW1         1 TEMP              0 ****  ****    0 ROOT
