@<TRIPOS>MOLECULE
molecule
   73    78     1     0     0
SMALL
bcc


@<TRIPOS>ATOM
      1 C4           0.0000     0.0000     0.0000 ca         1 EW1      -0.043900
      2 C5           0.6510     0.0100    -2.0710 cc         1 EW1       0.430700
      3 C6           3.1620     0.0040    -1.8260 cy         1 EW1       0.007000
      4 N1           1.7880     0.0030    -1.3200 na         1 EW1      -0.139300
      5 C7           3.4860     1.2010    -2.7380 cy         1 EW1       0.090500
      6 C8           3.3650    -0.8760    -3.0730 cy         1 EW1       0.090500
      7 N2           3.0520     0.3400    -3.8540 nj         1 EW1      -0.526800
      8 C9           2.5650     0.5700    -5.0900 c          1 EW1       0.736700
      9 C10          2.2250    -0.5610    -5.9690 cc         1 EW1      -0.251600
     10 C11          1.7260    -0.4940    -7.2400 cd         1 EW1      -0.067300
     11 C12          1.0350    -2.0920    -9.0240 c3         1 EW1       0.041300
     12 N3           1.5530    -1.7480    -7.6970 na         1 EW1      -0.046100
     13 C13          2.1970    -2.2050   -10.0130 c3         1 EW1      -0.095700
     14 C14          3.0920    -3.3820    -9.6180 c3         1 EW1      -0.077900
     15 C15          4.2180    -3.5280   -10.6440 c3         1 EW1       0.157800
     16 N4           3.6410    -3.7520   -11.9760 n3         1 EW1      -0.722600
     17 O            2.4070     1.7120    -5.4800 o          1 EW1      -0.612100
     18 C3           1.4060     0.0000     0.0000 ca         1 EW1      -0.066200
     19 C2           2.0740     0.0000     1.2220 ca         1 EW1      -0.263300
     20 N           -0.3950     0.0020    -1.2960 nd         1 EW1      -0.579100
     21 C27         -0.6700    -0.0070     1.2330 ca         1 EW1       0.747200
     22 N5          -2.0580    -0.0150     1.2690 nv         1 EW1      -1.073500
     23 N6           0.0200    -0.0070     2.3600 nb         1 EW1      -0.726000
     24 C1           1.3440    -0.0020     2.3780 ca         1 EW1       0.444600
     25 C            2.0630    -0.0030     3.7030 c3         1 EW1      -0.138400
     26 C26          2.3600    -1.9900    -5.6610 cc         1 EW1      -0.195000
     27 C25          1.9310    -2.6530    -6.7490 cd         1 EW1      -0.155300
     28 C17          1.6480    -2.4410   -11.4230 c3         1 EW1      -0.077900
     29 C16          2.8160    -2.6140   -12.3970 c3         1 EW1       0.157800
     30 C18          4.6910    -4.0340   -12.9630 c3         1 EW1       0.209700
     31 C24          5.5710    -5.1600   -12.4630 c2         1 EW1      -0.196200
     32 C23          5.0420    -6.2450   -11.9930 c2         1 EW1      -0.141200
     33 C22          3.5370    -6.4000   -11.9380 c3         1 EW1      -0.072200
     34 C21          3.0130    -6.5920   -13.3630 c3         1 EW1      -0.062400
     35 C20          2.7780    -5.2510   -14.0350 c3         1 EW1      -0.075400
     36 C19          4.0520    -4.4650   -14.2860 c3         1 EW1      -0.069400
     37 H1           0.6210     0.0210    -3.1540 h5         1 EW1       0.089800
     38 H2           3.9180    -0.1620    -1.0680 h1         1 EW1       0.087700
     39 H3           2.8330     2.0490    -2.5750 h1         1 EW1       0.074450
     40 H4           4.5430     1.4390    -2.7690 h1         1 EW1       0.074450
     41 H5           4.3880    -1.2100    -3.1960 h1         1 EW1       0.074450
     42 H6           2.6160    -1.6520    -3.1730 h1         1 EW1       0.074450
     43 H7           1.5040     0.4160    -7.7860 h4         1 EW1       0.187000
     44 H8           0.5110    -3.0390    -8.9730 h1         1 EW1       0.065700
     45 H9           0.3520    -1.3190    -9.3560 h1         1 EW1       0.065700
     46 H10          2.7790    -1.2910   -10.0010 hc         1 EW1       0.064700
     47 H11          2.5030    -4.2910    -9.5970 hc         1 EW1       0.051950
     48 H12          3.5180    -3.1980    -8.6390 hc         1 EW1       0.051950
     49 H13          4.8120    -2.6220   -10.6570 h1         1 EW1       0.042450
     50 H14          4.8420    -4.3720   -10.3750 h1         1 EW1       0.042450
     51 H16          3.1570     0.0040     1.2560 ha         1 EW1       0.130000
     52 H17         -2.5620     0.8490     1.3000 hn         1 EW1       0.438800
     53 H18         -2.5530    -0.8840     1.2950 hn         1 EW1       0.438800
     54 H19          2.6830    -0.8880     3.7760 hc         1 EW1       0.050700
     55 H20          2.6840     0.8810     3.7770 hc         1 EW1       0.050700
     56 H21          1.3370    -0.0030     4.5070 hc         1 EW1       0.050700
     57 H22          2.7270    -2.4240    -4.7390 ha         1 EW1       0.152000
     58 H23          1.8960    -3.7300    -6.8570 h4         1 EW1       0.169000
     59 H24          1.0390    -3.3360   -11.4280 hc         1 EW1       0.051950
     60 H25          1.0500    -1.5890   -11.7240 hc         1 EW1       0.051950
     61 H26          3.4190    -1.7140   -12.3980 h1         1 EW1       0.042450
     62 H27          2.4300    -2.7970   -13.3920 h1         1 EW1       0.042450
     63 H28          5.2940    -3.1480   -13.1240 h1         1 EW1       0.028700
     64 H29          6.6490    -5.0590   -12.5010 ha         1 EW1       0.123000
     65 H30          5.6800    -7.0450   -11.6370 ha         1 EW1       0.117000
     66 H31          3.0960    -5.5090   -11.5070 hc         1 EW1       0.066700
     67 H32          3.2830    -7.2650   -11.3380 hc         1 EW1       0.066700
     68 H33          2.0790    -7.1400   -13.3270 hc         1 EW1       0.037200
     69 H34          3.7400    -7.1540   -13.9360 hc         1 EW1       0.037200
     70 H35          2.1260    -4.6580   -13.4040 hc         1 EW1       0.041700
     71 H36          2.2870    -5.4230   -14.9850 hc         1 EW1       0.041700
     72 H37          3.8170    -3.5830   -14.8710 hc         1 EW1       0.042700
     73 H38          4.7510    -5.0860   -14.8330 hc         1 EW1       0.042700
@<TRIPOS>BOND
     1    26    27 2
     2    26     9 1
     3    27    12 1
     4    17     8 2
     5     9     8 1
     6     9    10 2
     7     8     7 1
     8    12    10 1
     9    12    11 1
    10     7     5 1
    11     7     6 1
    12    11    13 1
    13     5     3 1
    14     6     3 1
    15     3     4 1
    16    13    28 1
    17    13    14 1
    18    28    29 1
    19    29    16 1
    20     4    18 1
    21     4     2 1
    22    14    15 1
    23    19    18 ar
    24    19    24 ar
    25    18     1 ar
    26    15    16 1
    27    25    24 1
    28     2    20 2
    29    16    30 1
    30    24    23 ar
    31    31    30 1
    32    31    32 2
    33     1    20 1
    34     1    21 ar
    35    30    36 1
    36    32    33 1
    37    23    21 ar
    38    21    22 1
    39    33    34 1
    40    36    35 1
    41    35    34 1
    42     2    37 1
    43     3    38 1
    44     5    39 1
    45     5    40 1
    46     6    41 1
    47     6    42 1
    48    10    43 1
    49    11    44 1
    50    11    45 1
    51    13    46 1
    52    14    47 1
    53    14    48 1
    54    15    49 1
    55    15    50 1
    56    19    51 1
    57    22    52 1
    58    22    53 1
    59    25    54 1
    60    25    55 1
    61    25    56 1
    62    26    57 1
    63    27    58 1
    64    28    59 1
    65    28    60 1
    66    29    61 1
    67    29    62 1
    68    30    63 1
    69    31    64 1
    70    32    65 1
    71    33    66 1
    72    33    67 1
    73    34    68 1
    74    34    69 1
    75    35    70 1
    76    35    71 1
    77    36    72 1
    78    36    73 1
@<TRIPOS>SUBSTRUCTURE
     1 EW1         1 TEMP              0 ****  ****    0 ROOT
