@<TRIPOS>MOLECULE
EW4
   76    81     1     0     0
SMALL
bcc


@<TRIPOS>ATOM
      1 C4           0.0000     0.0000     0.0000 cc         1 EW4      -0.253600
      2 C5           1.3680     0.0000     0.0000 cd         1 EW4      -0.228300
      3 C6           3.1980    -0.0000     1.6930 c3         1 EW4      -0.055700
      4 N1           1.7930     0.0000     1.2780 na         1 EW4       0.447900
      5 C7           3.6870     1.4420     1.8380 c3         1 EW4      -0.071700
      6 C8           5.1860     1.4450     2.1490 c3         1 EW4      -0.028900
      7 N2           4.9070     3.4970     3.4600 n3         1 EW4      -0.522600
      8 C9           5.6560     2.8870     2.3530 c3         1 EW4       0.136800
      9 C10          5.4270     4.8340     3.7750 c3         1 EW4       0.182700
     10 C11          4.5850     5.4630     4.8650 c2         1 EW4      -0.185200
     11 C12          4.2870     4.7920     5.9310 c2         1 EW4      -0.114200
     12 N3          -4.1220    -2.1230    -0.7660 na         1 EW4       0.340700
     13 C13          4.7780     3.3710     6.1040 c3         1 EW4      -0.046200
     14 C14          6.2840     3.4040     6.3720 c3         1 EW4      -0.003400
     15 C15          7.0630     3.4380     5.0680 c3         1 EW4      -0.040400
     16 N4          -3.5150    -4.1620    -0.2760 nc         1 EW4      -0.487100
     17 O           -0.4080    -0.0040    -2.2960 o          1 EW4      -0.651100
     18 C3          -0.8850    -0.0050    -1.1760 c          1 EW4       0.693700
     19 N           -2.2230    -0.0110    -1.0130 nj         1 EW4      -0.207800
     20 C2          -3.1220    -0.0060     0.1560 cy         1 EW4       0.057000
     21 C21         -3.3770    -0.0160    -1.9330 cy         1 EW4       0.057000
     22 C1          -4.1630    -0.6590    -0.7730 cy         1 EW4      -0.135300
     23 C24         -4.9280    -2.9630    -1.4980 ca         1 EW4      -0.231200
     24 C25         -5.9640    -2.7910    -2.4120 ca         1 EW4      -0.223300
     25 C26         -6.5550    -3.8920    -2.9610 ca         1 EW4       0.391600
     26 C27         -7.6770    -3.7100    -3.9510 c3         1 EW4      -0.039400
     27 N5          -6.1650    -5.1170    -2.6450 nb         1 EW4      -0.604000
     28 C28         -5.1860    -5.3450    -1.7850 ca         1 EW4       0.570200
     29 N6          -4.8150    -6.6500    -1.4870 nv         1 EW4      -0.648500
     30 C23         -4.5250    -4.2700    -1.1730 ca         1 EW4      -0.070900
     31 C22         -3.2780    -2.9050    -0.0360 cd         1 EW4       0.241700
     32 C           -5.5760    -0.0990    -0.6030 c3         1 EW4       0.005900
     33 C20         -0.4070    -0.0010     1.4090 cc         1 EW4      -0.172000
     34 C19          0.7280    -0.0010     2.1310 cd         1 EW4      -0.317300
     35 C18          2.9340     2.1260     2.9840 c3         1 EW4      -0.028900
     36 C17          3.4700     3.5470     3.1630 c3         1 EW4       0.136800
     37 C16          6.8680     4.7190     4.2770 c3         1 EW4      -0.021400
     38 H1           2.0020    -0.0060    -0.8780 h4         1 EW4       0.161000
     39 H2           3.7950    -0.5110     0.9470 h1         1 EW4       0.040200
     40 H3           3.2940    -0.5110     2.6440 h1         1 EW4       0.040200
     41 H4           3.5090     1.9840     0.9170 hc         1 EW4       0.041700
     42 H5           5.3680     0.8750     3.0520 hc         1 EW4       0.026200
     43 H6           5.7270     1.0040     1.3210 hc         1 EW4       0.026200
     44 H8           5.4820     3.4540     1.4470 h1         1 EW4       0.021450
     45 H9           6.7130     2.8900     2.5900 h1         1 EW4       0.021450
     46 H10          5.4000     5.4590     2.8910 h1         1 EW4       0.009700
     47 H11          4.2320     6.4810     4.7520 ha         1 EW4       0.103000
     48 H12          3.6810     5.2510     6.7040 ha         1 EW4       0.095000
     49 H13          4.5830     2.8070     5.2000 hc         1 EW4       0.045200
     50 H14          4.2700     2.9110     6.9430 hc         1 EW4       0.045200
     51 H15          6.5650     2.5180     6.9300 hc         1 EW4       0.010700
     52 H16          6.5230     4.2870     6.9510 hc         1 EW4       0.010700
     53 H17          8.1170     3.3290     5.2940 hc         1 EW4       0.021200
     54 H18          6.7460     2.6030     4.4550 hc         1 EW4       0.021200
     55 H19         -3.4010     0.9910     0.4750 h1         1 EW4       0.043450
     56 H20         -2.7900    -0.6620     0.9510 h1         1 EW4       0.043450
     57 H21         -3.2450    -0.6810    -2.7780 h1         1 EW4       0.043450
     58 H22         -3.7260     0.9780    -2.1850 h1         1 EW4       0.043450
     59 H23         -6.4110    -1.8130    -2.5470 ha         1 EW4       0.116000
     60 H24         -7.3650    -3.0220    -4.7280 hc         1 EW4       0.012033
     61 H25         -8.5460    -3.3110    -3.4430 hc         1 EW4       0.012033
     62 H26         -7.9260    -4.6670    -4.3950 hc         1 EW4       0.012033
     63 H27         -5.2360    -7.1270    -0.7140 hn         1 EW4       0.277300
     64 H28         -4.1450    -7.1240    -2.0610 hn         1 EW4       0.277300
     65 H29         -2.5350    -2.5250     0.6550 h5         1 EW4       0.035800
     66 H30         -6.0220     0.0560    -1.5780 hc         1 EW4       0.020367
     67 H31         -6.1770    -0.8020    -0.0390 hc         1 EW4       0.020367
     68 H32         -5.5300     0.8440    -0.0730 hc         1 EW4       0.020367
     69 H33         -1.4200    -0.0020     1.7930 ha         1 EW4       0.132000
     70 H34          0.7860    -0.0020     3.2130 h4         1 EW4       0.149000
     71 H35          3.0850     1.5650     3.8990 hc         1 EW4       0.026200
     72 H36          1.8780     2.1660     2.7480 hc         1 EW4       0.026200
     73 H37          3.3110     4.1090     2.2510 h1         1 EW4       0.021450
     74 H38          2.9490     4.0270     3.9830 h1         1 EW4       0.021450
     75 H39          7.5410     4.7170     3.4280 hc         1 EW4       0.017200
     76 H40          7.0920     5.5670     4.9130 hc         1 EW4       0.017200
@<TRIPOS>BOND
     1     1     2 2   
     2     1    18 1   
     3     1    33 1   
     4     2     4 1   
     5     2    38 1   
     6     3     4 1   
     7     3     5 1   
     8     3    39 1   
     9     3    40 1   
    10     4    34 1   
    11     5     6 1   
    12     5    35 1   
    13     5    41 1   
    14     6     8 1   
    15     6    42 1   
    16     6    43 1   
    17     7     8 1   
    18     7     9 1   
    19     7    36 1   
    20     8    44 1   
    21     8    45 1   
    22     9    10 1   
    23     9    37 1   
    24     9    46 1   
    25    10    11 2   
    26    10    47 1   
    27    11    13 1   
    28    11    48 1   
    29    12    22 1   
    30    12    23 1   
    31    12    31 1   
    32    13    14 1   
    33    13    49 1   
    34    13    50 1   
    35    14    15 1   
    36    14    51 1   
    37    14    52 1   
    38    15    37 1   
    39    15    53 1   
    40    15    54 1   
    41    16    30 1   
    42    16    31 2   
    43    17    18 2   
    44    18    19 1   
    45    19    20 1   
    46    19    21 1   
    47    20    22 1   
    48    20    55 1   
    49    20    56 1   
    50    21    22 1   
    51    21    57 1   
    52    21    58 1   
    53    22    32 1   
    54    23    24 ar  
    55    23    30 ar  
    56    24    25 ar  
    57    24    59 1   
    58    25    26 1   
    59    25    27 ar  
    60    26    60 1   
    61    26    61 1   
    62    26    62 1   
    63    27    28 ar  
    64    28    29 1   
    65    28    30 ar  
    66    29    63 1   
    67    29    64 1   
    68    31    65 1   
    69    32    66 1   
    70    32    67 1   
    71    32    68 1   
    72    33    34 2   
    73    33    69 1   
    74    34    70 1   
    75    35    36 1   
    76    35    71 1   
    77    35    72 1   
    78    36    73 1   
    79    36    74 1   
    80    37    75 1   
    81    37    76 1   
@<TRIPOS>SUBSTRUCTURE
     1 EW4         1 TEMP              0 ****  ****    0 ROOT
