@<TRIPOS>MOLECULE
molecule
   58    57     1     0     0
SMALL
bcc


@<TRIPOS>ATOM
      1 C4           0.0000     0.0000     0.0000 c3         1 EW8      -0.088400
      2 C5           1.5290     0.0000     0.0000 c3         1 EW8      -0.081400
      3 C6           2.0400     0.0000     1.4430 c3         1 EW8      -0.083400
      4 C7           3.5700    -0.0000     1.4430 c3         1 EW8      -0.082400
      5 C8           4.0790     0.0000     2.8850 c3         1 EW8      -0.082400
      6 C10          6.1190     0.0000     4.3280 c3         1 EW8      -0.082400
      7 C13          9.6890    -0.0000     5.7710 c3         1 EW8      -0.082400
      8 C15         11.7280    -0.0000     7.2150 c3         1 EW8      -0.082400
      9 C17         13.7680    -0.0000     8.6570 c3         1 EW8      -0.081400
     10 O1          -1.7570     0.0000    -3.7830 o          1 EW8      -0.858300
     11 C1          -2.5420     0.0000    -2.8640 c          1 EW8       0.890600
     12 O2          -3.8620     0.0000    -3.1090 o          1 EW8      -0.858300
     13 C2          -2.0400     0.0000    -1.4430 c3         1 EW8      -0.183400
     14 C3          -0.5100     0.0000    -1.4430 c3         1 EW8      -0.063400
     15 C9           5.6090    -0.0000     2.8860 c3         1 EW8      -0.082400
     16 C11          7.6490    -0.0000     4.3290 c3         1 EW8      -0.082400
     17 C12          8.1590    -0.0000     5.7710 c3         1 EW8      -0.082400
     18 C14         10.1980     0.0000     7.2140 c3         1 EW8      -0.082400
     19 C16         12.2380     0.0000     8.6570 c3         1 EW8      -0.082400
     20 C18         14.2780     0.0000    10.1000 c3         1 EW8      -0.084400
     21 C19         15.8080    -0.0000    10.0990 c3         1 EW8      -0.092100
     22 H1          -0.3610     0.8840     0.5110 hc         1 EW8       0.028700
     23 H2          -0.3610    -0.8840     0.5110 hc         1 EW8       0.028700
     24 H3           1.8900     0.8840    -0.5110 hc         1 EW8       0.038700
     25 H4           1.8900    -0.8840    -0.5110 hc         1 EW8       0.038700
     26 H5           1.6780    -0.8840     1.9530 hc         1 EW8       0.035700
     27 H6           1.6780     0.8840     1.9530 hc         1 EW8       0.035700
     28 H7           3.9310    -0.8840     0.9330 hc         1 EW8       0.039700
     29 H8           3.9310     0.8840     0.9330 hc         1 EW8       0.039700
     30 H9           3.7180     0.8840     3.3960 hc         1 EW8       0.038700
     31 H10          3.7180    -0.8840     3.3960 hc         1 EW8       0.038700
     32 H11          5.7570    -0.8840     4.8390 hc         1 EW8       0.039700
     33 H12          5.7570     0.8840     4.8390 hc         1 EW8       0.039700
     34 H13         10.0500    -0.8850     5.2600 hc         1 EW8       0.040700
     35 H14         10.0500     0.8850     5.2600 hc         1 EW8       0.040700
     36 H15         12.0900     0.8840     6.7040 hc         1 EW8       0.040700
     37 H16         12.0900    -0.8840     6.7040 hc         1 EW8       0.040700
     38 H17         14.1290    -0.8840     8.1470 hc         1 EW8       0.040700
     39 H18         14.1290     0.8840     8.1470 hc         1 EW8       0.040700
     40 H20         -2.4020    -0.8840    -0.9330 hc         1 EW8       0.026700
     41 H21         -2.4020     0.8840    -0.9330 hc         1 EW8       0.026700
     42 H22         -0.1490    -0.8840    -1.9530 hc         1 EW8       0.044700
     43 H23         -0.1490     0.8840    -1.9530 hc         1 EW8       0.044700
     44 H24          5.9700    -0.8840     2.3750 hc         1 EW8       0.039700
     45 H25          5.9700     0.8840     2.3750 hc         1 EW8       0.039700
     46 H26          8.0100     0.8840     3.8180 hc         1 EW8       0.040700
     47 H27          8.0100    -0.8840     3.8180 hc         1 EW8       0.040700
     48 H28          7.7980    -0.8850     6.2820 hc         1 EW8       0.040700
     49 H29          7.7980     0.8850     6.2820 hc         1 EW8       0.040700
     50 H30          9.8370     0.8850     7.7250 hc         1 EW8       0.040700
     51 H31          9.8370    -0.8850     7.7250 hc         1 EW8       0.040700
     52 H32         11.8770     0.8840     9.1670 hc         1 EW8       0.040700
     53 H33         11.8770    -0.8840     9.1670 hc         1 EW8       0.040700
     54 H34         13.9170    -0.8850    10.6110 hc         1 EW8       0.039700
     55 H35         13.9170     0.8850    10.6110 hc         1 EW8       0.039700
     56 H36         16.1690     0.8850     9.5880 hc         1 EW8       0.031700
     57 H37         16.1700    -0.0000    11.1200 hc         1 EW8       0.031700
     58 H38         16.1690    -0.8850     9.5880 hc         1 EW8       0.031700
@<TRIPOS>BOND
     1    21    20 1
     2    10    11 1
     3    20     9 1
     4    11    12 1
     5    11    13 1
     6     9    19 1
     7    13    14 1
     8    19     8 1
     9    18     7 1
    10    18     8 1
    11    14     1 1
    12     7    17 1
    13    16    17 1
    14    16     6 1
    15     5    15 1
    16     5     4 1
    17    15     6 1
    18     2     1 1
    19     2     3 1
    20     4     3 1
    21     1    22 1
    22     1    23 1
    23     2    24 1
    24     2    25 1
    25     3    26 1
    26     3    27 1
    27     4    28 1
    28     4    29 1
    29     5    30 1
    30     5    31 1
    31     6    32 1
    32     6    33 1
    33     7    34 1
    34     7    35 1
    35     8    36 1
    36     8    37 1
    37     9    38 1
    38     9    39 1
    39    13    40 1
    40    13    41 1
    41    14    42 1
    42    14    43 1
    43    15    44 1
    44    15    45 1
    45    16    46 1
    46    16    47 1
    47    17    48 1
    48    17    49 1
    49    18    50 1
    50    18    51 1
    51    19    52 1
    52    19    53 1
    53    20    54 1
    54    20    55 1
    55    21    56 1
    56    21    57 1
    57    21    58 1
@<TRIPOS>SUBSTRUCTURE
     1 EW8         1 TEMP              0 ****  ****    0 ROOT
