@<TRIPOS>MOLECULE
molecule
   32    34     1     0     0
SMALL
bcc


@<TRIPOS>ATOM
      1 C14          0.0000     0.0000     0.0000 ca         1 EWD      -0.071000
      2 C15          1.3960     0.0000     0.0000 ca         1 EWD      -0.114000
      3 C16          2.0900     0.0000     1.1910 ca         1 EWD      -0.240000
      4 C17          1.4070    -0.0010     2.3980 ca         1 EWD       0.151100
      5 C18          0.0040    -0.0010     2.4090 ca         1 EWD      -0.119600
      6 C19         -0.6960     0.0000     1.2020 ca         1 EWD      -0.055000
      7 C20         -0.7410     0.0070    -1.2870 cc         1 EWD      -0.215300
      8 C21         -0.1890     0.0080    -2.5350 cd         1 EWD      -0.138300
      9 N22         -1.2010     0.0150    -3.4280 na         1 EWD      -0.060600
     10 N23         -2.4080     0.0180    -2.7210 nd         1 EWD      -0.536800
     11 C24         -2.1410     0.0060    -1.4410 cc         1 EWD       0.349200
     12 C25         -0.7280    -0.0030     3.6890 c          1 EWD       0.882200
     13 O26         -0.1150    -0.0040     4.7380 o          1 EWD      -0.827800
     14 O27         -2.0750    -0.0030     3.6950 o          1 EWD      -0.827800
     15 O28          2.0940    -0.0030     3.5680 os         1 EWD      -0.190200
     16 C29          3.4520     0.0100     3.5110 ca         1 EWD       0.129100
     17 C30          4.1350     1.2170     3.4880 ca         1 EWD      -0.141500
     18 C31          5.5150     1.2270     3.4290 ca         1 EWD      -0.130000
     19 C32          6.2160     0.0340     3.3920 ca         1 EWD      -0.153000
     20 C33          5.5360    -1.1700     3.4140 ca         1 EWD      -0.130000
     21 C34          4.1570    -1.1850     3.4790 ca         1 EWD      -0.141500
     22 H1           1.9360     0.0000    -0.9390 ha         1 EWD       0.103000
     23 H2           3.1730     0.0000     1.1850 ha         1 EWD       0.122000
     24 H3          -1.7790    -0.0000     1.2020 ha         1 EWD       0.161000
     25 H4           0.8690     0.0040    -2.7670 h4         1 EWD       0.165000
     26 H5          -1.1040     0.0190    -4.4250 hn         1 EWD       0.314700
     27 H6          -2.8690     0.0050    -0.6390 h4         1 EWD       0.063100
     28 H8           3.5870     2.1510     3.5170 ha         1 EWD       0.147500
     29 H9           6.0490     2.1690     3.4120 ha         1 EWD       0.120000
     30 H10          7.2980     0.0440     3.3440 ha         1 EWD       0.115000
     31 H11          6.0870    -2.1030     3.3870 ha         1 EWD       0.120000
     32 H12          3.6250    -2.1290     3.4960 ha         1 EWD       0.147500
@<TRIPOS>BOND
     1    20    21 ar
     2    20    19 ar
     3    21    16 ar
     4    19    18 ar
     5    16    15 1
     6    16    17 ar
     7    18    17 ar
     8    15     4 1
     9     3     4 ar
    10     3     2 ar
    11     4     5 ar
    12     2     1 ar
    13     5     6 ar
    14     5    12 1
    15     1     6 ar
    16     1     7 1
    17    11     7 1
    18    11    10 2
    19    13    12 1
    20    12    14 1
    21     7     8 2
    22    10     9 1
    23     8     9 1
    24     2    22 1
    25     3    23 1
    26     6    24 1
    27     8    25 1
    28     9    26 1
    29    11    27 1
    30    17    28 1
    31    18    29 1
    32    19    30 1
    33    20    31 1
    34    21    32 1
@<TRIPOS>SUBSTRUCTURE
     1 EWD         1 TEMP              0 ****  ****    0 ROOT
