@<TRIPOS>MOLECULE
molecule
   21    22     1     0     0
SMALL
bcc


@<TRIPOS>ATOM
      1 C2           0.0000     0.0000     0.0000 cc         1 EWG      -0.219300
      2 C3           1.3640     0.0000     0.0000 cd         1 EWG      -0.134300
      3 C6          -0.4250     0.0020     1.3430 cc         1 EWG       0.349200
      4 N4           1.7720     0.0000     1.2860 na         1 EWG      -0.061600
      5 N5           0.6360     0.0010     2.1050 nd         1 EWG      -0.537800
      6 C13         -0.8780     0.0060    -1.1980 ca         1 EWG      -0.041000
      7 C14         -2.2600     0.0050    -1.0490 ca         1 EWG      -0.095000
      8 C15         -3.0770     0.0110    -2.1780 ca         1 EWG      -0.100600
      9 C16         -2.5020     0.0160    -3.4510 ca         1 EWG      -0.094000
     10 C17         -1.1300     0.0150    -3.5910 ca         1 EWG      -0.162000
     11 C18         -0.3170     0.0170    -2.4740 ca         1 EWG      -0.151000
     12 C19         -4.5470     0.0100    -2.0290 c          1 EWG       0.883200
     13 O20         -5.0450     0.0060    -0.9210 o          1 EWG      -0.837800
     14 O21         -5.3350     0.0150    -3.1210 o          1 EWG      -0.837800
     15 H1           2.0040    -0.0010    -0.8740 h4         1 EWG       0.166000
     16 H2          -1.4530     0.0030     1.6840 h4         1 EWG       0.061100
     17 H3           2.7220    -0.0000     1.6000 hn         1 EWG       0.314700
     18 H4          -2.7000     0.0010    -0.0590 ha         1 EWG       0.145000
     19 H5          -3.1350     0.0170    -4.3310 ha         1 EWG       0.153000
     20 H6          -0.6880     0.0210    -4.5800 ha         1 EWG       0.104000
     21 H7           0.7600     0.0160    -2.5900 ha         1 EWG       0.096000
@<TRIPOS>BOND
     1    13    12 1
     2     9    10 ar
     3     9     8 ar
     4    10    11 ar
     5     8    12 1
     6     8     7 ar
     7    11     6 ar
     8    12    14 1
     9     7     6 ar
    10     6     1 1
    11     1     2 2
    12     1     3 1
    13     2     4 1
    14     3     5 2
    15     4     5 1
    16     2    15 1
    17     3    16 1
    18     4    17 1
    19     7    18 1
    20     9    19 1
    21    10    20 1
    22    11    21 1
@<TRIPOS>SUBSTRUCTURE
     1 EWG         1 TEMP              0 ****  ****    0 ROOT
