@<TRIPOS>MOLECULE
molecule
   38    41     1     0     0
SMALL
bcc


@<TRIPOS>ATOM
      1 C2           0.0000     0.0000     0.0000 ca         1 EWJ      -0.116000
      2 C3           1.3610     0.0000     0.0000 ca         1 EWJ      -0.140000
      3 C4           2.0790     0.0000     1.1950 ca         1 EWJ      -0.139000
      4 C5           1.4380     0.0020     2.3970 ca         1 EWJ      -0.110000
      5 C14         -3.6910    -3.6600     6.4960 ca         1 EWJ      -0.086000
      6 C15         -2.9930    -3.5970     5.2880 ca         1 EWJ      -0.106000
      7 C16         -2.6650    -2.3760     4.7380 ca         1 EWJ      -0.243000
      8 C17         -3.0250    -1.2010     5.3810 ca         1 EWJ       0.154100
      9 C18         -3.7250    -1.2540     6.5960 ca         1 EWJ      -0.121600
     10 C19         -4.0560    -2.4910     7.1490 ca         1 EWJ      -0.042000
     11 C20         -4.0450    -4.9780     7.0780 cc         1 EWJ      -0.233300
     12 C21         -4.6590    -6.0090     6.4280 cd         1 EWJ      -0.112300
     13 N22         -4.8010    -7.0210     7.3080 na         1 EWJ      -0.048600
     14 N23         -4.2640    -6.6140     8.5340 nc         1 EWJ      -0.561800
     15 C24         -3.8060    -5.3960     8.4040 cd         1 EWJ       0.573500
     16 C25         -4.1090    -0.0070     7.2830 c          1 EWJ       0.882200
     17 O26         -4.7820    -0.0610     8.4500 o          1 EWJ      -0.826300
     18 O27         -3.8180     1.0680     6.7990 o          1 EWJ      -0.826300
     19 C29         -2.0280     0.0010     3.6550 ca         1 EWJ       0.133100
     20 C30         -0.6610     0.0050     3.6560 ca         1 EWJ      -0.141000
     21 C31          0.0330     0.0020     2.4350 ca         1 EWJ      -0.027000
     22 C32         -0.6960     0.0080     1.2200 ca         1 EWJ      -0.046000
     23 C33         -2.1010     0.0090     1.2560 ca         1 EWJ      -0.127000
     24 C34         -2.7450     0.0070     2.4540 ca         1 EWJ      -0.127000
     25 F1          -3.2130    -4.6630     9.3710 f          1 EWJ      -0.192200
     26 H1          -0.5440     0.0000    -0.9370 ha         1 EWJ       0.123000
     27 H2           1.8950    -0.0010    -0.9430 ha         1 EWJ       0.116000
     28 H3           3.1620    -0.0000     1.1680 ha         1 EWJ       0.119000
     29 H4           2.0080     0.0020     3.3180 ha         1 EWJ       0.133000
     30 H7          -4.5970    -2.5390     8.0860 ha         1 EWJ       0.169000
     31 H8          -4.9750    -6.0130     5.3910 h4         1 EWJ       0.174000
     32 H9          -5.2200    -7.9090     7.1170 hn         1 EWJ       0.325700
     33 H11         -0.1200     0.1340     4.5860 ha         1 EWJ       0.156000
     34 H12         -2.6690     0.0130     0.3340 ha         1 EWJ       0.126000
     35 H13         -3.8280     0.0110     2.4790 ha         1 EWJ       0.148000
     36 O28         -2.6980    -0.0010     4.8370 os         1 EWJ      -0.191200
     37 H5          -2.7090    -4.5110     4.7810 ha         1 EWJ       0.107000
     38 H6          -2.1240    -2.3340     3.8000 ha         1 EWJ       0.124000
@<TRIPOS>BOND
     1    18    16 1
     2    16    17 1
     3    16     9 1
     4    10     9 ar
     5    10     5 ar
     6     9     8 ar
     7    13    14 1
     8    13    12 1
     9    14    15 2
    10    12    11 2
    11    15    11 1
    12    15    25 1
    13    11     5 1
    14     5     6 ar
    15     8    36 1
    16     8     7 ar
    17    36    19 1
    18     6     7 ar
    19    20    19 ar
    20    20    21 ar
    21    19    24 ar
    22     4    21 ar
    23     4     3 ar
    24    21    22 ar
    25    24    23 ar
    26     3     2 ar
    27    22    23 ar
    28    22     1 ar
    29     2     1 ar
    30     1    26 1
    31     2    27 1
    32     3    28 1
    33     4    29 1
    34     6    37 1
    35     7    38 1
    36    10    30 1
    37    12    31 1
    38    13    32 1
    39    20    33 1
    40    23    34 1
    41    24    35 1
@<TRIPOS>SUBSTRUCTURE
     1 EWJ         1 TEMP              0 ****  ****    0 ROOT
