@<TRIPOS>MOLECULE
molecule
   49    49     1     0     0
SMALL
bcc


@<TRIPOS>ATOM
      1 O9           0.0000     0.0000     0.0000 o          1 EWM      -0.591100
      2 C8           1.2130     0.0000     0.0000 c          1 EWM       0.662100
      3 N7           1.8860     0.0000     1.1670 ns         1 EWM      -0.580900
      4 C1           1.1540     0.0000     2.4360 c3         1 EWM       0.004700
      5 C5           2.0210    -0.6110     3.5580 c3         1 EWM      -0.134400
      6 C4           2.1540     0.5490     4.5680 c3         1 EWM       0.135400
      7 OAP          1.0830     1.4770     4.2200 os         1 EWM      -0.409900
      8 C2           0.8850     1.4200     2.8910 c          1 EWM       0.716600
      9 O6           0.5520     2.3400     2.1830 o          1 EWM      -0.527500
     10 C10          1.9660    -0.0060    -1.3060 c3         1 EWM      -0.154400
     11 C11          0.9720    -0.0120    -2.4680 c3         1 EWM      -0.066400
     12 C13          1.7360    -0.0180    -3.7930 c3         1 EWM      -0.085400
     13 C14          0.7420    -0.0240    -4.9560 c3         1 EWM      -0.079400
     14 C15          1.5070    -0.0300    -6.2810 c3         1 EWM      -0.082400
     15 C16          0.5130    -0.0360    -7.4440 c3         1 EWM      -0.081400
     16 C17          1.2780    -0.0430    -8.7690 c3         1 EWM      -0.082400
     17 C18          0.2830    -0.0490    -9.9320 c3         1 EWM      -0.082400
     18 C19          1.0480    -0.0540   -11.2570 c3         1 EWM      -0.081400
     19 C20          0.0550    -0.0610   -12.4200 c3         1 EWM      -0.084400
     20 C21          0.8190    -0.0660   -13.7450 c3         1 EWM      -0.092100
     21 H1           2.8870    -0.0040     1.1670 hn         1 EWM       0.316500
     22 H2           0.2240    -0.5460     2.3410 h1         1 EWM       0.117700
     23 H3           2.9940    -0.8970     3.1760 hc         1 EWM       0.068700
     24 H4           1.5170    -1.4560     4.0120 hc         1 EWM       0.068700
     25 H5           2.0190     0.1830     5.5790 h1         1 EWM       0.066200
     26 H6           3.1180     1.0310     4.4610 h1         1 EWM       0.066200
     27 H7           2.5890     0.8790    -1.3670 hc         1 EWM       0.059200
     28 H8           2.5890    -0.8900    -1.3590 hc         1 EWM       0.059200
     29 H9           0.3490    -0.8960    -2.4060 hc         1 EWM       0.060700
     30 H10          0.3490     0.8730    -2.4150 hc         1 EWM       0.060700
     31 H11          2.3590    -0.9030    -3.8460 hc         1 EWM       0.038200
     32 H12          2.3590     0.8660    -3.8550 hc         1 EWM       0.038200
     33 H13          0.1190     0.8600    -4.9030 hc         1 EWM       0.044700
     34 H14          0.1200    -0.9090    -4.8940 hc         1 EWM       0.044700
     35 H15          2.1300     0.8540    -6.3430 hc         1 EWM       0.040200
     36 H16          2.1300    -0.9150    -6.3340 hc         1 EWM       0.040200
     37 H17         -0.1100     0.8490    -7.3910 hc         1 EWM       0.042200
     38 H18         -0.1100    -0.9200    -7.3820 hc         1 EWM       0.042200
     39 H19          1.9010     0.8410    -8.8310 hc         1 EWM       0.040700
     40 H20          1.9000    -0.9280    -8.8220 hc         1 EWM       0.040700
     41 H21         -0.3390    -0.9330    -9.8700 hc         1 EWM       0.041200
     42 H22         -0.3400     0.8350    -9.8780 hc         1 EWM       0.041200
     43 H23          1.6720    -0.9380   -11.3100 hc         1 EWM       0.040700
     44 H24          1.6700     0.8310   -11.3190 hc         1 EWM       0.040700
     45 H25         -0.5670    -0.9460   -12.3580 hc         1 EWM       0.039700
     46 H26         -0.5690     0.8230   -12.3660 hc         1 EWM       0.039700
     47 H27          0.1150    -0.0710   -14.5680 hc         1 EWM       0.032367
     48 H28          1.4430    -0.9500   -13.7980 hc         1 EWM       0.032367
     49 H29          1.4410     0.8190   -13.8070 hc         1 EWM       0.032367
@<TRIPOS>BOND
     1     1     2 2
     2    13    14 1
     3    13    12 1
     4    15    14 1
     5    15    16 1
     6    11    12 1
     7    11    10 1
     8     2    10 1
     9     2     3 1
    10     9     8 2
    11    16    17 1
    12    17    18 1
    13     8     4 1
    14     8     7 1
    15     3     4 1
    16     4     5 1
    17     7     6 1
    18    18    19 1
    19    19    20 1
    20     6     5 1
    21     3    21 1
    22     4    22 1
    23     5    23 1
    24     5    24 1
    25     6    25 1
    26     6    26 1
    27    10    27 1
    28    10    28 1
    29    11    29 1
    30    11    30 1
    31    12    31 1
    32    12    32 1
    33    13    33 1
    34    13    34 1
    35    14    35 1
    36    14    36 1
    37    15    37 1
    38    15    38 1
    39    16    39 1
    40    16    40 1
    41    17    41 1
    42    17    42 1
    43    18    43 1
    44    18    44 1
    45    19    45 1
    46    19    46 1
    47    20    47 1
    48    20    48 1
    49    20    49 1
@<TRIPOS>SUBSTRUCTURE
     1 EWM         1 TEMP              0 ****  ****    0 ROOT
