@<TRIPOS>MOLECULE
EWM
   49    49     1     0     0
SMALL
bcc


@<TRIPOS>ATOM
      1 O9           0.0000     0.0000     0.0000 o          1 EWM      -0.628100
      2 C8           1.2130     0.0000     0.0000 c          1 EWM       0.578100
      3 N7           1.8860     0.0000     1.1670 ns         1 EWM      -0.190900
      4 C1           1.1540     0.0000     2.4360 c3         1 EWM      -0.091300
      5 C5           2.0210    -0.6110     3.5580 c3         1 EWM      -0.074400
      6 C4           2.1540     0.5490     4.5680 c3         1 EWM       0.221400
      7 OAP          1.0830     1.4770     4.2200 os         1 EWM      -0.399900
      8 C2           0.8850     1.4200     2.8910 c          1 EWM       0.778600
      9 O6           0.5520     2.3400     2.1830 o          1 EWM      -0.569500
     10 C10          1.9660    -0.0060    -1.3060 c3         1 EWM      -0.093400
     11 C11          0.9720    -0.0120    -2.4680 c3         1 EWM      -0.016400
     12 C13          1.7360    -0.0180    -3.7930 c3         1 EWM      -0.031400
     13 C14          0.7420    -0.0240    -4.9560 c3         1 EWM      -0.027400
     14 C15          1.5070    -0.0300    -6.2810 c3         1 EWM      -0.029400
     15 C16          0.5130    -0.0360    -7.4440 c3         1 EWM      -0.029400
     16 C17          1.2780    -0.0430    -8.7690 c3         1 EWM      -0.029400
     17 C18          0.2830    -0.0490    -9.9320 c3         1 EWM      -0.029400
     18 C19          1.0480    -0.0540   -11.2570 c3         1 EWM      -0.030400
     19 C20          0.0550    -0.0610   -12.4200 c3         1 EWM      -0.028400
     20 C21          0.8190    -0.0660   -13.7450 c3         1 EWM       0.006900
     21 H1           2.8870    -0.0040     1.1670 hn         1 EWM       0.175500
     22 H2           0.2240    -0.5460     2.3410 h1         1 EWM       0.087700
     23 H3           2.9940    -0.8970     3.1760 hc         1 EWM       0.035200
     24 H4           1.5170    -1.4560     4.0120 hc         1 EWM       0.035200
     25 H5           2.0190     0.1830     5.5790 h1         1 EWM       0.019700
     26 H6           3.1180     1.0310     4.4610 h1         1 EWM       0.019700
     27 H7           2.5890     0.8790    -1.3670 hc         1 EWM       0.026700
     28 H8           2.5890    -0.8900    -1.3590 hc         1 EWM       0.026700
     29 H9           0.3490    -0.8960    -2.4060 hc         1 EWM       0.031700
     30 H10          0.3490     0.8730    -2.4150 hc         1 EWM       0.031700
     31 H11          2.3590    -0.9030    -3.8460 hc         1 EWM       0.011200
     32 H12          2.3590     0.8660    -3.8550 hc         1 EWM       0.011200
     33 H13          0.1190     0.8600    -4.9030 hc         1 EWM       0.017700
     34 H14          0.1200    -0.9090    -4.8940 hc         1 EWM       0.017700
     35 H15          2.1300     0.8540    -6.3430 hc         1 EWM       0.013200
     36 H16          2.1300    -0.9150    -6.3340 hc         1 EWM       0.013200
     37 H17         -0.1100     0.8490    -7.3910 hc         1 EWM       0.015200
     38 H18         -0.1100    -0.9200    -7.3820 hc         1 EWM       0.015200
     39 H19          1.9010     0.8410    -8.8310 hc         1 EWM       0.014200
     40 H20          1.9000    -0.9280    -8.8220 hc         1 EWM       0.014200
     41 H21         -0.3390    -0.9330    -9.8700 hc         1 EWM       0.014700
     42 H22         -0.3400     0.8350    -9.8780 hc         1 EWM       0.014700
     43 H23          1.6720    -0.9380   -11.3100 hc         1 EWM       0.014200
     44 H24          1.6700     0.8310   -11.3190 hc         1 EWM       0.014200
     45 H25         -0.5670    -0.9460   -12.3580 hc         1 EWM       0.011700
     46 H26         -0.5690     0.8230   -12.3660 hc         1 EWM       0.011700
     47 H27          0.1150    -0.0710   -14.5680 hc         1 EWM      -0.000300
     48 H28          1.4430    -0.9500   -13.7980 hc         1 EWM      -0.000300
     49 H29          1.4410     0.8190   -13.8070 hc         1 EWM      -0.000300
@<TRIPOS>BOND
     1     1     2 2   
     2     2     3 1   
     3     2    10 1   
     4     3     4 1   
     5     3    21 1   
     6     4     5 1   
     7     4     8 1   
     8     4    22 1   
     9     5     6 1   
    10     5    23 1   
    11     5    24 1   
    12     6     7 1   
    13     6    25 1   
    14     6    26 1   
    15     7     8 1   
    16     8     9 2   
    17    10    11 1   
    18    10    27 1   
    19    10    28 1   
    20    11    12 1   
    21    11    29 1   
    22    11    30 1   
    23    12    13 1   
    24    12    31 1   
    25    12    32 1   
    26    13    14 1   
    27    13    33 1   
    28    13    34 1   
    29    14    15 1   
    30    14    35 1   
    31    14    36 1   
    32    15    16 1   
    33    15    37 1   
    34    15    38 1   
    35    16    17 1   
    36    16    39 1   
    37    16    40 1   
    38    17    18 1   
    39    17    41 1   
    40    17    42 1   
    41    18    19 1   
    42    18    43 1   
    43    18    44 1   
    44    19    20 1   
    45    19    45 1   
    46    19    46 1   
    47    20    47 1   
    48    20    48 1   
    49    20    49 1   
@<TRIPOS>SUBSTRUCTURE
     1 EWM         1 TEMP              0 ****  ****    0 ROOT
