@<TRIPOS>MOLECULE
EWN
   49    52     1     0     0
SMALL
bcc


@<TRIPOS>ATOM
      1 C1           0.0000     0.0000     0.0000 c3         1 EWN      -0.015100
      2 C2           1.5300     0.0000     0.0000 c3         1 EWN      -0.063700
      3 C3           2.0410     0.0000     1.4420 c3         1 EWN      -0.015100
      4 C8           3.4890    -1.6960    -3.6640 ca         1 EWN       0.141100
      5 C9           3.3100    -1.9830    -5.0090 ca         1 EWN      -0.156000
      6 C10          3.2990    -0.9590    -5.9400 ca         1 EWN       0.120900
      7 C11          3.4680     0.3540    -5.5350 ca         1 EWN      -0.145000
      8 C12          3.6490     0.6480    -4.1960 ca         1 EWN      -0.085000
      9 C13          3.6610    -0.3740    -3.2600 ca         1 EWN      -0.165400
     10 C19          5.2230     0.8880     2.1280 ca         1 EWN      -0.102000
     11 C20          4.6020     2.0160     2.6430 ca         1 EWN       0.122100
     12 C21          3.8750     2.8610     1.8030 ca         1 EWN      -0.152400
     13 C22          3.7720     2.5770     0.4550 ca         1 EWN      -0.059000
     14 N23          3.2520     3.9970     2.3430 ns         1 EWN      -0.016100
     15 C24          3.6220     4.4230     3.5710 c          1 EWN       0.561500
     16 C4           2.0400    -1.2490    -0.7210 c3         1 EWN      -0.036400
     17 C5           3.5520    -1.1410    -0.9210 c3         1 EWN      -0.084300
     18 C6           4.0990    -2.4600    -1.4860 c3         1 EWN       0.209400
     19 O7           3.4900    -2.7060    -2.7550 os         1 EWN      -0.298900
     20 N14          3.8520    -0.0810    -1.8990 n          1 EWN       0.043000
     21 O16          4.6050     1.9650    -2.3290 o          1 EWN      -0.629100
     22 C17          4.3990     1.4410    -0.0630 ca         1 EWN      -0.143600
     23 C18          5.1290     0.6020     0.7830 ca         1 EWN      -0.088000
     24 C26          4.7130     3.6970     4.3170 c3         1 EWN       0.150400
     25 O27          4.6950     2.3110     3.9670 os         1 EWN      -0.299900
     26 H1          -0.3610     0.0800    -1.0180 hc         1 EWN       0.010033
     27 H2          -0.3610    -0.9220     0.4400 hc         1 EWN       0.010033
     28 H3          -0.3610     0.8420     0.5780 hc         1 EWN       0.010033
     29 H4           1.8910     0.8840    -0.5110 hc         1 EWN       0.030700
     30 H5           1.6580    -0.8710     1.9600 hc         1 EWN       0.010033
     31 H6           1.7010     0.8970     1.9450 hc         1 EWN       0.010033
     32 H7           3.1240    -0.0270     1.4420 hc         1 EWN       0.010033
     33 H8           3.1770    -3.0090    -5.3310 ha         1 EWN       0.132000
     34 H9           3.4590     1.1520    -6.2680 ha         1 EWN       0.123000
     35 H10          3.7810     1.6750    -3.8800 ha         1 EWN       0.177000
     36 H11          5.7900     0.2360     2.7810 ha         1 EWN       0.124000
     37 H12          3.3050     3.2900    -0.2140 ha         1 EWN       0.128000
     38 H13          2.6820     4.5790     1.7620 hn         1 EWN       0.186500
     39 H14          1.5530    -1.3340    -1.6850 hc         1 EWN       0.035700
     40 H15          1.8160    -2.1260    -0.1250 hc         1 EWN       0.035700
     41 H16          4.0380    -0.9170     0.0210 h1         1 EWN       0.085700
     42 H17          5.1700    -2.3670    -1.6220 h1         1 EWN       0.025700
     43 H18          3.8400    -3.2660    -0.8090 h1         1 EWN       0.025700
     44 H19          5.6790    -0.2350     0.3690 ha         1 EWN       0.118000
     45 H20          5.6700     4.1160     4.0290 h1         1 EWN       0.043700
     46 H21          4.5300     3.7900     5.3800 h1         1 EWN       0.043700
     47 F28          3.1250    -1.2420    -7.2500 f          1 EWN      -0.128900
     48 C15          4.2930     1.1290    -1.5020 c          1 EWN       0.602700
     49 O25          3.0780     5.3840     4.0720 o          1 EWN      -0.643500
@<TRIPOS>BOND
     1     1     2 1   
     2     1    26 1   
     3     1    27 1   
     4     1    28 1   
     5     2     3 1   
     6     2    16 1   
     7     2    29 1   
     8     3    30 1   
     9     3    31 1   
    10     3    32 1   
    11     4     5 ar  
    12     4     9 ar  
    13     4    19 1   
    14     5     6 ar  
    15     5    33 1   
    16     6     7 ar  
    17     6    47 1   
    18     7     8 ar  
    19     7    34 1   
    20     8     9 ar  
    21     8    35 1   
    22     9    20 1   
    23    10    11 ar  
    24    10    23 ar  
    25    10    36 1   
    26    11    12 ar  
    27    11    25 1   
    28    12    13 ar  
    29    12    14 1   
    30    13    22 ar  
    31    13    37 1   
    32    14    15 1   
    33    14    38 1   
    34    15    24 1   
    35    15    49 2   
    36    16    17 1   
    37    16    39 1   
    38    16    40 1   
    39    17    18 1   
    40    17    20 1   
    41    17    41 1   
    42    18    19 1   
    43    18    42 1   
    44    18    43 1   
    45    20    48 1   
    46    21    48 2   
    47    22    23 ar  
    48    22    48 1   
    49    23    44 1   
    50    24    25 1   
    51    24    45 1   
    52    24    46 1   
@<TRIPOS>SUBSTRUCTURE
     1 EWN         1 TEMP              0 ****  ****    0 ROOT
