@<TRIPOS>MOLECULE
molecule
   49    52     1     0     0
SMALL
bcc


@<TRIPOS>ATOM
      1 C1           0.0000     0.0000     0.0000 c3         1 EWN      -0.094100
      2 C2           1.5300     0.0000     0.0000 c3         1 EWN      -0.078700
      3 C3           2.0410     0.0000     1.4420 c3         1 EWN      -0.094100
      4 C8           3.4890    -1.6960    -3.6640 ca         1 EWN       0.128100
      5 C9           3.3100    -1.9830    -5.0090 ca         1 EWN      -0.182000
      6 C10          3.2990    -0.9590    -5.9400 ca         1 EWN       0.142900
      7 C11          3.4680     0.3540    -5.5350 ca         1 EWN      -0.180000
      8 C12          3.6490     0.6480    -4.1960 ca         1 EWN      -0.099000
      9 C13          3.6610    -0.3740    -3.2600 ca         1 EWN      -0.026400
     10 C19          5.2230     0.8880     2.1280 ca         1 EWN      -0.124000
     11 C20          4.6020     2.0160     2.6430 ca         1 EWN       0.107100
     12 C21          3.8750     2.8610     1.8030 ca         1 EWN      -0.000400
     13 C22          3.7720     2.5770     0.4550 ca         1 EWN      -0.098000
     14 N23          3.2520     3.9970     2.3430 ns         1 EWN      -0.460100
     15 C24          3.6220     4.4230     3.5710 c          1 EWN       0.664500
     16 C4           2.0400    -1.2490    -0.7210 c3         1 EWN      -0.086400
     17 C5           3.5520    -1.1410    -0.9210 c3         1 EWN       0.047700
     18 C6           4.0990    -2.4600    -1.4860 c3         1 EWN       0.134400
     19 O7           3.4900    -2.7060    -2.7550 os         1 EWN      -0.322900
     20 N14          3.8520    -0.0810    -1.8990 n          1 EWN      -0.363000
     21 O16          4.6050     1.9650    -2.3290 o          1 EWN      -0.588100
     22 C17          4.3990     1.4410    -0.0630 ca         1 EWN      -0.130600
     23 C18          5.1290     0.6020     0.7830 ca         1 EWN      -0.115000
     24 C26          4.7130     3.6970     4.3170 c3         1 EWN       0.074400
     25 O27          4.6950     2.3110     3.9670 os         1 EWN      -0.319900
     26 H1          -0.3610     0.0800    -1.0180 hc         1 EWN       0.037200
     27 H2          -0.3610    -0.9220     0.4400 hc         1 EWN       0.037200
     28 H3          -0.3610     0.8420     0.5780 hc         1 EWN       0.037200
     29 H4           1.8910     0.8840    -0.5110 hc         1 EWN       0.052700
     30 H5           1.6580    -0.8710     1.9600 hc         1 EWN       0.037200
     31 H6           1.7010     0.8970     1.9450 hc         1 EWN       0.037200
     32 H7           3.1240    -0.0270     1.4420 hc         1 EWN       0.037200
     33 H8           3.1770    -3.0090    -5.3310 ha         1 EWN       0.160000
     34 H9           3.4590     1.1520    -6.2680 ha         1 EWN       0.150000
     35 H10          3.7810     1.6750    -3.8800 ha         1 EWN       0.195000
     36 H11          5.7900     0.2360     2.7810 ha         1 EWN       0.155000
     37 H12          3.3050     3.2900    -0.2140 ha         1 EWN       0.157000
     38 H13          2.6820     4.5790     1.7620 hn         1 EWN       0.344500
     39 H14          1.5530    -1.3340    -1.6850 hc         1 EWN       0.061700
     40 H15          1.8160    -2.1260    -0.1250 hc         1 EWN       0.061700
     41 H16          4.0380    -0.9170     0.0210 h1         1 EWN       0.092700
     42 H17          5.1700    -2.3670    -1.6220 h1         1 EWN       0.068200
     43 H18          3.8400    -3.2660    -0.8090 h1         1 EWN       0.068200
     44 H19          5.6790    -0.2350     0.3690 ha         1 EWN       0.146000
     45 H20          5.6700     4.1160     4.0290 h1         1 EWN       0.092200
     46 H21          4.5300     3.7900     5.3800 h1         1 EWN       0.092200
     47 F28          3.1250    -1.2420    -7.2500 f          1 EWN      -0.138900
     48 C15          4.2930     1.1290    -1.5020 c          1 EWN       0.684700
     49 O25          3.0780     5.3840     4.0720 o          1 EWN      -0.604500
@<TRIPOS>BOND
     1     3     2 1
     2     2    16 1
     3     2     1 1
     4    16    17 1
     5    17    18 1
     6    17    20 1
     7    19    18 1
     8    19     4 1
     9     4     5 ar
    10     4     9 ar
    11     5     6 ar
    12    20     9 1
    13    20    48 1
    14     9     8 ar
    15     6    47 1
    16     6     7 ar
    17    21    48 2
    18     8     7 ar
    19    48    22 1
    20    22    13 ar
    21    22    23 ar
    22    13    12 ar
    23    23    10 ar
    24    12    14 1
    25    12    11 ar
    26    10    11 ar
    27    14    15 1
    28    11    25 1
    29    15    49 2
    30    15    24 1
    31    25    24 1
    32     1    26 1
    33     1    27 1
    34     1    28 1
    35     2    29 1
    36     3    30 1
    37     3    31 1
    38     3    32 1
    39     5    33 1
    40     7    34 1
    41     8    35 1
    42    10    36 1
    43    13    37 1
    44    14    38 1
    45    16    39 1
    46    16    40 1
    47    17    41 1
    48    18    42 1
    49    18    43 1
    50    23    44 1
    51    24    45 1
    52    24    46 1
@<TRIPOS>SUBSTRUCTURE
     1 EWN         1 TEMP              0 ****  ****    0 ROOT
