@<TRIPOS>MOLECULE
EWQ
   32    33     1     0     0
SMALL
bcc


@<TRIPOS>ATOM
      1 C1           0.0000     0.0000     0.0000 ca         1 EWQ      -0.141000
      2 C2           1.4000     0.0000     0.0000 ca         1 EWQ      -0.043800
      3 C3           2.1020     0.0000     1.2180 ca         1 EWQ      -0.122400
      4 C4           1.3940    -0.0020     2.4210 ca         1 EWQ       0.153100
      5 C5           0.0130    -0.0020     2.4060 ca         1 EWQ      -0.278000
      6 C6          -0.6830     0.0050     1.2000 ca         1 EWQ       0.163100
      7 C7           2.1550     0.0010    -1.2550 cc         1 EWQ      -0.012400
      8 C8           3.5100     0.0020    -1.1960 cd         1 EWQ      -0.206200
      9 C9           4.1680     0.0010     0.0530 c          1 EWQ       0.596700
     10 N10          3.4840     0.0000     1.2100 n          1 EWQ       0.097000
     11 C11          4.2130    -0.0000     2.4800 c3         1 EWQ       0.024300
     12 O12          5.3860     0.0020     0.0820 o          1 EWQ      -0.702500
     13 C13          1.4420     0.0010    -2.5820 c3         1 EWQ       0.054100
     14 O14          2.0620    -0.0030     3.6050 os         1 EWQ      -0.305900
     15 C15          1.2720    -0.0040     4.7960 c3         1 EWQ       0.238700
     16 O16         -2.0420     0.0040     1.2040 os         1 EWQ      -0.304900
     17 C17         -2.6870    -0.0040     2.4780 c3         1 EWQ       0.244700
     18 H1          -0.5450     0.0050    -0.9360 ha         1 EWQ       0.128000
     19 H5          -0.5340     0.0020     3.3410 ha         1 EWQ       0.140000
     20 H8           4.0900     0.0030    -2.1110 ha         1 EWQ       0.136000
     21 H11          3.9500     0.8840     3.0480 h1         1 EWQ       0.035367
     22 H11A         5.2790     0.0010     2.2840 h1         1 EWQ       0.035367
     23 H11B         3.9510    -0.8850     3.0470 h1         1 EWQ       0.035367
     24 H13          0.8220     0.8860    -2.6590 hc         1 EWQ       0.015033
     25 H13A         0.8200    -0.8830    -2.6580 hc         1 EWQ       0.015033
     26 H13B         2.1710    -0.0000    -3.3840 hc         1 EWQ       0.015033
     27 H15          0.6480     0.8810     4.8160 h1         1 EWQ      -0.000300
     28 H15A         0.6460    -0.8880     4.8130 h1         1 EWQ      -0.000300
     29 H15B         1.9240    -0.0060     5.6610 h1         1 EWQ      -0.000300
     30 H17         -2.3970     0.8790     3.0350 h1         1 EWQ      -0.002967
     31 H17A        -3.7620    -0.0060     2.3390 h1         1 EWQ      -0.002967
     32 H17B        -2.3920    -0.8900     3.0270 h1         1 EWQ      -0.002967
@<TRIPOS>BOND
     1     1     2 ar  
     2     1     6 ar  
     3     1    18 1   
     4     2     3 ar  
     5     2     7 1   
     6     3     4 ar  
     7     3    10 1   
     8     4     5 ar  
     9     4    14 1   
    10     5     6 ar  
    11     5    19 1   
    12     6    16 1   
    13     7     8 2   
    14     7    13 1   
    15     8     9 1   
    16     8    20 1   
    17     9    10 1   
    18     9    12 2   
    19    10    11 1   
    20    11    21 1   
    21    11    22 1   
    22    11    23 1   
    23    13    24 1   
    24    13    25 1   
    25    13    26 1   
    26    14    15 1   
    27    15    27 1   
    28    15    28 1   
    29    15    29 1   
    30    16    17 1   
    31    17    30 1   
    32    17    31 1   
    33    17    32 1   
@<TRIPOS>SUBSTRUCTURE
     1 EWQ         1 TEMP              0 ****  ****    0 ROOT
