@<TRIPOS>MOLECULE
molecule
   49    52     1     0     0
SMALL
bcc


@<TRIPOS>ATOM
      1 CAC          0.0000     0.0000     0.0000 c3         1 EWS       0.114700
      2 CAD          1.5310     0.0000     0.0000 c3         1 EWS      -0.116400
      3 CAE         -0.5030     1.2130     0.7880 c3         1 EWS      -0.117400
      4 CAF          0.0750     1.1690     2.2050 c3         1 EWS       0.097800
      5 CAH          2.0360     0.0000     1.4450 c3         1 EWS       0.111500
      6 CAI          3.5650     0.0020     1.4520 c3         1 EWS      -0.054100
      7 CAJ          4.0620    -0.1260     2.8690 ca         1 EWS      -0.149300
      8 CAK          4.2900    -1.3770     3.4110 ca         1 EWS      -0.127000
      9 CAL          4.2920     1.0080     3.6260 ca         1 EWS      -0.127000
     10 CAM          4.7470     0.8910     4.9250 ca         1 EWS      -0.103500
     11 CAN          4.9710    -0.3610     5.4700 ca         1 EWS       0.044400
     12 CAO          4.7440    -1.4950     4.7110 ca         1 EWS      -0.103500
     13 CAQ         -4.7200    -3.1690    -0.1930 ca         1 EWS      -0.042000
     14 CAR         -5.7070    -4.1220    -0.0670 ca         1 EWS      -0.027900
     15 CAS         -5.5320    -5.2040     0.7860 ca         1 EWS      -0.075000
     16 CAT         -4.3730    -5.3390     1.5180 ca         1 EWS      -0.128000
     17 CAU         -3.3640    -4.3870     1.4040 ca         1 EWS      -0.054200
     18 CAV         -3.5430    -3.2930     0.5410 ca         1 EWS      -0.024800
     19 CAX         -1.5080    -3.1310     1.5440 cc         1 EWS      -0.118100
     20 NAA         -0.4910    -1.2300     0.6280 ns         1 EWS      -0.637900
     21 NAG          1.5400     1.1980     2.1400 ny         1 EWS      -0.731000
     22 NAW         -2.1230    -4.2510     1.9920 na         1 EWS      -0.132400
     23 OAB         -2.4110    -1.1080    -0.4820 o          1 EWS      -0.669100
     24 CBA         -2.3120    -2.4900     0.6480 cd         1 EWS      -0.133400
     25 ClA          5.5420    -0.5080     7.1020 cl         1 EWS      -0.055400
     26 HAC         -0.3600     0.0600    -1.0200 h1         1 EWS       0.125700
     27 HAD          1.8910     0.8860    -0.5080 hc         1 EWS       0.090200
     28 HAE          1.8910    -0.8860    -0.5080 hc         1 EWS       0.090200
     29 HAF         -0.1800     2.1220     0.2960 hc         1 EWS       0.095700
     30 HAG         -1.5840     1.1870     0.8390 hc         1 EWS       0.095700
     31 HAI         -0.2770     2.0280     2.7630 hx         1 EWS       0.103700
     32 HAH         -0.2450     0.2580     2.6950 hx         1 EWS       0.103700
     33 HAJ          1.6700    -0.8850     1.9520 hx         1 EWS       0.100700
     34 HAL          3.9300    -0.8330     0.8650 hc         1 EWS       0.088700
     35 HAK          3.9270     0.9290     1.0240 hc         1 EWS       0.088700
     36 HAM          4.1130    -2.2650     2.8170 ha         1 EWS       0.134000
     37 HAN          4.1170     1.9880     3.1990 ha         1 EWS       0.134000
     38 HAO          4.9260     1.7800     5.5180 ha         1 EWS       0.164500
     39 HAP          4.9210    -2.4760     5.1360 ha         1 EWS       0.164500
     40 HAQ         -4.8590    -2.3260    -0.8590 ha         1 EWS       0.174000
     41 HAS         -6.3140    -5.9470     0.8770 ha         1 EWS       0.160000
     42 HAT         -4.2470    -6.1860     2.1800 ha         1 EWS       0.143000
     43 HAX         -0.5250    -2.7940     1.8520 h4         1 EWS       0.160000
     44 HAA          0.1010    -1.7440     1.2490 hn         1 EWS       0.296500
     45 HAZ          1.9120     1.2200     3.0690 hn         1 EWS       0.449300
     46 HAY          1.8330     2.0150     1.6410 hn         1 EWS       0.449300
     47 HAW         -1.7330    -4.8900     2.6570 hn         1 EWS       0.301700
     48 CAZ         -1.7130    -1.7020     0.3180 c          1 EWS       0.702300
     49 BrA         -7.3070    -3.9580    -1.0620 br         1 EWS      -0.061100
@<TRIPOS>BOND
     1    25    11 1
     2    11    12 ar
     3    11    10 ar
     4    12     8 ar
     5    10     9 ar
     6     8     7 ar
     7     9     7 ar
     8     7     6 1
     9     6     5 1
    10     5    21 1
    11     5     2 1
    12    21     4 1
    13     2     1 1
    14     4     3 1
    15     3     1 1
    16    49    14 1
    17     1    20 1
    18    20    48 1
    19    14    13 ar
    20    14    15 ar
    21    13    18 ar
    22    48    23 2
    23    48    24 1
    24    15    16 ar
    25    18    24 1
    26    18    17 ar
    27    24    19 2
    28    16    17 ar
    29    17    22 1
    30    19    22 1
    31     1    26 1
    32     2    27 1
    33     2    28 1
    34     3    29 1
    35     3    30 1
    36     4    31 1
    37     4    32 1
    38     5    33 1
    39     6    34 1
    40     6    35 1
    41     8    36 1
    42     9    37 1
    43    10    38 1
    44    12    39 1
    45    13    40 1
    46    15    41 1
    47    16    42 1
    48    19    43 1
    49    20    44 1
    50    21    45 1
    51    21    46 1
    52    22    47 1
@<TRIPOS>SUBSTRUCTURE
     1 EWS         1 TEMP              0 ****  ****    0 ROOT
