@<TRIPOS>MOLECULE
EWS
   49    53     1     0     0
SMALL
bcc


@<TRIPOS>ATOM
      1 CAC          0.0000     0.0000     0.0000 c3         1 EWS      -0.032000
      2 CAD          1.5310     0.0000     0.0000 c3         1 EWS      -0.047400
      3 CAE         -0.5030     1.2130     0.7880 c3         1 EWS      -0.050400
      4 CAF          0.0750     1.1690     2.2050 c3         1 EWS      -0.029200
      5 CAH          2.0360     0.0000     1.4450 c3         1 EWS      -0.056500
      6 CAI          3.5650     0.0020     1.4520 c3         1 EWS       0.030900
      7 CAJ          4.0620    -0.1260     2.8690 ca         1 EWS      -0.172300
      8 CAK          4.2900    -1.3770     3.4110 ca         1 EWS      -0.093000
      9 CAL          4.2920     1.0080     3.6260 ca         1 EWS      -0.093000
     10 CAM          4.7470     0.8910     4.9250 ca         1 EWS      -0.076000
     11 CAN          4.9710    -0.3610     5.4700 ca         1 EWS      -0.028600
     12 CAO          4.7440    -1.4950     4.7110 ca         1 EWS      -0.076000
     13 CAQ         -4.7200    -3.1690    -0.1930 ca         1 EWS      -0.023000
     14 CAR         -5.7070    -4.1220    -0.0670 ca         1 EWS       0.026100
     15 CAS         -5.5320    -5.2040     0.7860 ca         1 EWS      -0.058000
     16 CAT         -4.3730    -5.3390     1.5180 ca         1 EWS      -0.076000
     17 CAU         -3.3640    -4.3870     1.4040 ca         1 EWS      -0.268200
     18 CAV         -3.5430    -3.2930     0.5410 ca         1 EWS       0.015700
     19 CAX         -1.5080    -3.1310     1.5440 c2         1 EWS      -0.060800
     20 NAA         -0.4910    -1.2300     0.6280 nu         1 EWS      -0.182100
     21 NAG          1.5400     1.1980     2.1400 ny         1 EWS       0.021000
     22 NAW         -2.1230    -4.2510     1.9920 nu         1 EWS       0.376800
     23 OAB         -2.4110    -1.1080    -0.4820 op         1 EWS      -0.684400
     24 CBA         -2.3120    -2.4900     0.6480 cx         1 EWS      -0.174500
     25 ClA          5.5420    -0.5080     7.1020 cl         1 EWS       0.041600
     26 HAC         -0.3600     0.0600    -1.0200 h1         1 EWS       0.097700
     27 HAD          1.8910     0.8860    -0.5080 hc         1 EWS       0.057200
     28 HAE          1.8910    -0.8860    -0.5080 hc         1 EWS       0.057200
     29 HAF         -0.1800     2.1220     0.2960 hc         1 EWS       0.064200
     30 HAG         -1.5840     1.1870     0.8390 hc         1 EWS       0.064200
     31 HAI         -0.2770     2.0280     2.7630 hx         1 EWS       0.076700
     32 HAH         -0.2450     0.2580     2.6950 hx         1 EWS       0.076700
     33 HAJ          1.6700    -0.8850     1.9520 hx         1 EWS       0.083700
     34 HAL          3.9300    -0.8330     0.8650 hc         1 EWS       0.053200
     35 HAK          3.9270     0.9290     1.0240 hc         1 EWS       0.053200
     36 HAM          4.1130    -2.2650     2.8170 ha         1 EWS       0.106500
     37 HAN          4.1170     1.9880     3.1990 ha         1 EWS       0.106500
     38 HAO          4.9260     1.7800     5.5180 ha         1 EWS       0.130500
     39 HAP          4.9210    -2.4760     5.1360 ha         1 EWS       0.130500
     40 HAQ         -4.8590    -2.3260    -0.8590 ha         1 EWS       0.144000
     41 HAS         -6.3140    -5.9470     0.8770 ha         1 EWS       0.126000
     42 HAT         -4.2470    -6.1860     2.1800 ha         1 EWS       0.111000
     43 HAX         -0.5250    -2.7940     1.8520 h4         1 EWS       0.020800
     44 HAA          0.1010    -1.7440     1.2490 hn         1 EWS       0.138700
     45 HAZ          1.9120     1.2200     3.0690 hn         1 EWS       0.246800
     46 HAY          1.8330     2.0150     1.6410 hn         1 EWS       0.246800
     47 HAW         -1.7330    -4.8900     2.6570 hn         1 EWS       0.112700
     48 CAZ         -1.7130    -1.7020     0.3180 cu         1 EWS       0.557600
     49 BrA         -7.3070    -3.9580    -1.0620 br         1 EWS      -0.090100
@<TRIPOS>BOND
     1     1     2 1   
     2     1     3 1   
     3     1    20 1   
     4     1    26 1   
     5     2     5 1   
     6     2    27 1   
     7     2    28 1   
     8     3     4 1   
     9     3    29 1   
    10     3    30 1   
    11     4    21 1   
    12     4    31 1   
    13     4    32 1   
    14     5     6 1   
    15     5    21 1   
    16     5    33 1   
    17     6     7 1   
    18     6    34 1   
    19     6    35 1   
    20     7     8 ar  
    21     7     9 ar  
    22     8    12 ar  
    23     8    36 1   
    24     9    10 ar  
    25     9    37 1   
    26    10    11 ar  
    27    10    38 1   
    28    11    12 ar  
    29    11    25 1   
    30    12    39 1   
    31    13    14 ar  
    32    13    18 ar  
    33    13    40 1   
    34    14    15 ar  
    35    14    49 1   
    36    15    16 ar  
    37    15    41 1   
    38    16    17 ar  
    39    16    42 1   
    40    17    18 ar  
    41    17    22 1   
    42    18    24 1   
    43    19    22 2   
    44    19    24 1   
    45    19    43 1   
    46    20    44 1   
    47    20    48 2   
    48    21    45 1   
    49    21    46 1   
    50    22    47 1   
    51    23    24 1   
    52    23    48 1   
    53    24    48 1   
@<TRIPOS>SUBSTRUCTURE
     1 EWS         1 TEMP              0 ****  ****    0 ROOT
