@<TRIPOS>MOLECULE
molecule
   43    47     1     0     0
SMALL
bcc


@<TRIPOS>ATOM
      1 C13          0.0000     0.0000     0.0000 ca         1 EWV      -0.105000
      2 C15         -2.1550     0.0400     1.2110 ca         1 EWV      -0.099000
      3 C16         -2.8210     0.3710     2.3890 ca         1 EWV      -0.068300
      4 C12          2.1520     0.0120    -1.1850 ca         1 EWV      -0.122000
      5 C10          4.1830     0.0370     0.0990 ca         1 EWV       0.074100
      6 C5          -2.0110     0.6960     3.6170 c3         1 EWV      -0.050100
      7 C6          -0.7480    -0.1590     3.6410 c3         1 EWV       0.000300
      8 C3          -4.9220     0.1130     1.2710 ca         1 EWV       0.162100
      9 O2          -6.2810     0.1440     1.3010 os         1 EWV      -0.289900
     10 CB          -6.8950     0.4830     2.5460 c3         1 EWV       0.119700
     11 C4          -4.1990     0.4030     2.4200 ca         1 EWV      -0.181000
     12 N7          -0.0140    -0.0620     2.3750 na         1 EWV       0.056900
     13 C8           1.3020    -0.0550     2.4260 ca         1 EWV       0.028700
     14 C17          2.0690    -0.0110     1.2550 ca         1 EWV      -0.078000
     15 C9           3.4760     0.0130     1.2870 ca         1 EWV       0.077100
     16 O3           4.3590     0.0180     2.3260 os         1 EWV      -0.316900
     17 CC           5.6240    -0.3660     1.7570 c3         1 EWV       0.334200
     18 O4           5.5190     0.0590     0.3850 os         1 EWV      -0.296900
     19 C11          3.5120     0.0310    -1.1270 ca         1 EWV      -0.034000
     20 C18          1.4030     0.0000     0.0000 ca         1 EWV       0.014000
     21 C14         -0.6710     0.0000     1.2090 ca         1 EWV       0.034700
     22 C1          -2.8770    -0.2470     0.0560 ca         1 EWV      -0.172000
     23 C2          -4.2600    -0.2110     0.0890 ca         1 EWV       0.140100
     24 O1          -4.9730    -0.4910    -1.0340 os         1 EWV      -0.289900
     25 CA          -4.2310    -0.8140    -2.2120 c3         1 EWV       0.124700
     26 HH1         -0.4150     0.7110    -0.7040 ha         1 EWV       0.193000
     27 H2           1.6490     0.0760    -2.1430 ha         1 EWV       0.174000
     28 H71         -2.6010     0.4900     4.5020 hc         1 EWV       0.087200
     29 H72         -1.7350     1.7440     3.5980 hc         1 EWV       0.087200
     30 H61         -0.1060     0.2000     4.4370 h1         1 EWV       0.095200
     31 H62         -1.0360    -1.1920     3.7910 h1         1 EWV       0.095200
     32 HB3         -6.6030     1.4860     2.8310 h1         1 EWV       0.052700
     33 HB2         -7.9730     0.4360     2.4410 h1         1 EWV       0.052700
     34 HB1         -6.5760    -0.2170     3.3080 h1         1 EWV       0.052700
     35 H4          -4.7130     0.7290     3.3160 ha         1 EWV       0.162000
     36 H8           1.7990    -0.0840     3.3880 h4         1 EWV       0.205000
     37 HC2          5.7550    -1.4400     1.8120 h2         1 EWV       0.094200
     38 HC1          6.4360     0.1510     2.2530 h2         1 EWV       0.094200
     39 H3           4.0840     0.0430    -2.0470 ha         1 EWV       0.176000
     40 H1          -2.4970    -1.1190    -0.4640 ha         1 EWV       0.161000
     41 HA2         -3.7150    -1.7550    -2.0660 h1         1 EWV       0.050367
     42 HA1         -4.9070    -0.8990    -3.0530 h1         1 EWV       0.050367
     43 HA3         -3.5070    -0.0320    -2.4080 h1         1 EWV       0.050367
@<TRIPOS>BOND
     1    25    24 1
     2    24    23 1
     3     4    19 ar
     4     4    20 ar
     5    19     5 ar
     6    23    22 ar
     7    23     8 ar
     8    22     2 ar
     9     1    20 ar
    10     1    21 ar
    11    20    14 ar
    12     5    18 1
    13     5    15 ar
    14    18    17 1
    15     9     8 1
    16     9    10 1
    17     8    11 ar
    18     2    21 1
    19     2     3 ar
    20    21    12 1
    21    14    15 ar
    22    14    13 ar
    23    15    16 1
    24    17    16 1
    25    11     3 ar
    26     3     6 1
    27    12    13 2
    28    12     7 1
    29     6     7 1
    30     1    26 1
    31     4    27 1
    32     6    28 1
    33     6    29 1
    34     7    30 1
    35     7    31 1
    36    10    32 1
    37    10    33 1
    38    10    34 1
    39    11    35 1
    40    13    36 1
    41    17    37 1
    42    17    38 1
    43    19    39 1
    44    22    40 1
    45    25    41 1
    46    25    42 1
    47    25    43 1
@<TRIPOS>SUBSTRUCTURE
     1 EWV         1 TEMP              0 ****  ****    0 ROOT
