@<TRIPOS>MOLECULE
molecule
   36    37     1     0     0
SMALL
bcc


@<TRIPOS>ATOM
      1 Cl           0.0000     0.0000     0.0000 cl         1 EWW      -0.067400
      2 C3           1.7360     0.0000     0.0000 ca         1 EWW       0.077400
      3 C4           2.4270     0.0000     1.2000 ca         1 EWW      -0.322500
      4 S6           1.5390     0.0010     2.7230 sy         1 EWW       1.241200
      5 O8           2.5150     0.0350     3.7560 o          1 EWW      -0.506800
      6 N11          0.7160     1.4340     2.8090 nz         1 EWW      -0.811500
      7 O7           0.5580    -1.0210     2.6150 o          1 EWW      -0.506800
      8 C5           3.8110    -0.0000     1.2100 ca         1 EWW      -0.012000
      9 C2           2.4250    -0.0070    -1.1960 ca         1 EWW      -0.065000
     10 C22          3.8240    -0.0070    -1.1930 ca         1 EWW      -0.065600
     11 C1           4.5120    -0.0010     0.0230 ca         1 EWW      -0.097000
     12 C9           4.5650    -0.0140    -2.4640 c          1 EWW       0.568700
     13 O12          3.9640    -0.0190    -3.5170 o          1 EWW      -0.459100
     14 C10          6.0730    -0.0140    -2.4560 c3         1 EWW      -0.110300
     15 S13          6.6840    -0.0240    -4.1600 ss         1 EWW      -0.100300
     16 C14          8.4210    -0.0210    -3.8610 cc         1 EWW       0.503800
     17 N17          9.2810    -0.0220    -4.9170 ns         1 EWW      -0.427400
     18 C18         10.6140    -0.0200    -4.6950 c          1 EWW       0.687700
     19 O21         11.3990    -0.0200    -5.6290 o          1 EWW      -0.616500
     20 C19         11.0780    -0.0180    -3.3680 cc         1 EWW      -0.303200
     21 C16         10.1680    -0.0180    -2.3500 cd         1 EWW       0.191400
     22 N15          8.8650    -0.0150    -2.6190 nd         1 EWW      -0.708300
     23 C20         10.6410    -0.0180    -0.9190 c3         1 EWW      -0.043900
     24 H1           1.3380     2.1900     2.6010 hn         1 EWW       0.495800
     25 H2          -0.0350     1.4280     2.1470 hn         1 EWW       0.495800
     26 H3           4.3440     0.0020     2.1530 ha         1 EWW       0.179000
     27 H4           1.8840    -0.0110    -2.1350 ha         1 EWW       0.197000
     28 H5           5.5950    -0.0010     0.0340 ha         1 EWW       0.177000
     29 H6           6.4310    -0.8960    -1.9390 h1         1 EWW       0.108700
     30 H7           6.4310     0.8730    -1.9490 h1         1 EWW       0.108700
     31 H8          12.1240    -0.2080    -3.1600 ha         1 EWW       0.177000
     32 H10          9.8070     0.2030    -0.2630 hc         1 EWW       0.057033
     33 H11         11.0470    -0.9910    -0.6730 hc         1 EWW       0.057033
     34 H12         11.4090     0.7360    -0.7930 hc         1 EWW       0.057033
     35 H13          8.9280    -0.0240    -5.8540 hn         1 EWW       0.348500
     36 H113         0.3540     1.5560     3.7350 hn         1 EWW       0.495800
@<TRIPOS>BOND
     1    15    16 1
     2    15    14 1
     3    17    16 1
     4    17    18 1
     5    19    18 2
     6    16    22 2
     7    14    12 1
     8    18    20 1
     9    13    12 2
    10    12    10 1
    11    11    10 ar
    12    11     8 ar
    13    22    21 1
    14    10     9 ar
    15    20    21 2
    16     8     3 ar
    17    21    23 1
    18     9     2 ar
    19     3     2 ar
    20     3     4 1
    21     2     1 1
    22     6     4 1
    23     5     4 2
    24     4     7 2
    25     6    24 1
    26     6    25 1
    27     8    26 1
    28     9    27 1
    29    11    28 1
    30    14    29 1
    31    14    30 1
    32    20    31 1
    33    23    32 1
    34    23    33 1
    35    23    34 1
    36    17    35 1
    37    36     6 1
@<TRIPOS>SUBSTRUCTURE
     1 EWW         1 TEMP              0 ****  ****    0 ROOT
