@<TRIPOS>MOLECULE
molecule
   36    37     1     0     0
SMALL
bcc


@<TRIPOS>ATOM
      1 O20          0.0000     0.0000     0.0000 o          1 EWY      -0.617500
      2 C18          1.2200     0.0000     0.0000 c          1 EWY       0.687700
      3 C22          1.9370     0.0000     1.2100 cc         1 EWY      -0.302200
      4 C17          3.3010    -0.0010     1.1690 cd         1 EWY       0.191400
      5 C21          4.0920    -0.0020     2.4510 c3         1 EWY      -0.042900
      6 N16          3.9340    -0.0010    -0.0010 nd         1 EWY      -0.707300
      7 N19          1.9080    -0.0060    -1.1620 ns         1 EWY      -0.428400
      8 C15          3.2700    -0.0010    -1.1410 cc         1 EWY       0.502800
      9 S14          4.1590    -0.0070    -2.6620 ss         1 EWY      -0.103300
     10 C13          5.8560     0.0030    -2.0340 c3         1 EWY      -0.110300
     11 C11          6.8210    -0.0000    -3.1920 c          1 EWY       0.580700
     12 O12          6.4020    -0.0100    -4.3300 o          1 EWY      -0.484100
     13 C2           8.2710     0.0070    -2.9420 ca         1 EWY      -0.170600
     14 C3           9.1690     0.0090    -4.0140 ca         1 EWY       0.021000
     15 C4          10.5260     0.0160    -3.7720 ca         1 EWY      -0.352500
     16 S7          11.6600     0.0190    -5.1210 sy         1 EWY       1.231200
     17 O9          10.9640    -0.5310    -6.2310 o          1 EWY      -0.511300
     18 N10         11.9670     1.6020    -5.4980 nz         1 EWY      -0.807500
     19 O8          12.8770    -0.5190    -4.6230 o          1 EWY      -0.511300
     20 C5          11.0010     0.0210    -2.4720 ca         1 EWY      -0.009000
     21 C6          10.1190     0.0190    -1.4050 ca         1 EWY      -0.135000
     22 C1           8.7580     0.0170    -1.6320 ca         1 EWY       0.001000
     23 H1           1.4230     0.1900     2.1440 ha         1 EWY       0.176000
     24 H3           4.9600    -0.6400     2.3400 hc         1 EWY       0.057033
     25 H4           4.4120     1.0080     2.6790 hc         1 EWY       0.057033
     26 H5           3.4710    -0.3740     3.2580 hc         1 EWY       0.057033
     27 H6           6.0210    -0.8770    -1.4250 h1         1 EWY       0.107700
     28 H7           6.0140     0.8920    -1.4350 h1         1 EWY       0.107700
     29 H8           8.8010    -0.0660    -5.0300 ha         1 EWY       0.181000
     30 H9          11.1120     2.0570    -5.7490 hn         1 EWY       0.493800
     31 H10         12.6050     1.6430    -6.2690 hn         1 EWY       0.493800
     32 H11         12.0680     0.0240    -2.2880 ha         1 EWY       0.160000
     33 H12         10.4980     0.0250    -0.3900 ha         1 EWY       0.172000
     34 H13          8.0690     0.0160    -0.7960 ha         1 EWY       0.172000
     35 H2           1.4190    -0.0060    -2.0350 hn         1 EWY       0.347500
     36 H103        12.3600     2.0650    -4.7030 hn         1 EWY       0.493800
@<TRIPOS>BOND
     1     1     2 2
     2     2     3 1
     3     2     7 1
     4     3     4 2
     5     7     8 1
     6     4     5 1
     7     4     6 1
     8     8     6 2
     9     8     9 1
    10     9    10 1
    11    10    11 1
    12    12    11 2
    13    11    13 1
    14    13    22 ar
    15    13    14 ar
    16    22    21 ar
    17    21    20 ar
    18    14    15 ar
    19    15    20 ar
    20    15    16 1
    21    18    16 1
    22    17    16 2
    23    16    19 2
    24     3    23 1
    25     5    24 1
    26     5    25 1
    27     5    26 1
    28    10    27 1
    29    10    28 1
    30    14    29 1
    31    18    30 1
    32    18    31 1
    33    20    32 1
    34    21    33 1
    35    22    34 1
    36     7    35 1
    37    36    18 1
@<TRIPOS>SUBSTRUCTURE
     1 EWY         1 TEMP              0 ****  ****    0 ROOT
