@<TRIPOS>MOLECULE
EWY
   36    37     1     0     0
SMALL
bcc


@<TRIPOS>ATOM
      1 O20          0.0000     0.0000     0.0000 o          1 EWY      -0.655500
      2 C18          1.2200     0.0000     0.0000 c          1 EWY       0.582700
      3 C22          1.9370     0.0000     1.2100 cc         1 EWY      -0.277200
      4 C17          3.3010    -0.0010     1.1690 cd         1 EWY       0.149400
      5 C21          4.0920    -0.0020     2.4510 c3         1 EWY       0.061100
      6 N16          3.9340    -0.0010    -0.0010 nd         1 EWY      -0.604300
      7 N19          1.9080    -0.0060    -1.1620 ns         1 EWY       0.070600
      8 C15          3.2700    -0.0010    -1.1410 cc         1 EWY       0.328800
      9 S14          4.1590    -0.0070    -2.6620 ss         1 EWY      -0.229300
     10 C13          5.8560     0.0030    -2.0340 c3         1 EWY      -0.011300
     11 C11          6.8210    -0.0000    -3.1920 c          1 EWY       0.628700
     12 O12          6.4020    -0.0100    -4.3300 o          1 EWY      -0.505100
     13 C2           8.2710     0.0070    -2.9420 ca         1 EWY      -0.186600
     14 C3           9.1690     0.0090    -4.0140 ca         1 EWY       0.065000
     15 C4          10.5260     0.0160    -3.7720 ca         1 EWY      -0.239500
     16 S7          11.6600     0.0190    -5.1210 sy         1 EWY       0.939200
     17 O9          10.9640    -0.5310    -6.2310 o          1 EWY      -0.490800
     18 N10         11.9670     1.6020    -5.4980 nz         1 EWY      -0.130500
     19 O8          12.8770    -0.5190    -4.6230 o          1 EWY      -0.490800
     20 C5          11.0010     0.0210    -2.4720 ca         1 EWY       0.033000
     21 C6          10.1190     0.0190    -1.4050 ca         1 EWY      -0.111000
     22 C1           8.7580     0.0170    -1.6320 ca         1 EWY       0.034000
     23 H1           1.4230     0.1900     2.1440 ha         1 EWY       0.153000
     24 H3           4.9600    -0.6400     2.3400 hc         1 EWY       0.018033
     25 H4           4.4120     1.0080     2.6790 hc         1 EWY       0.018033
     26 H5           3.4710    -0.3740     3.2580 hc         1 EWY       0.018033
     27 H6           6.0210    -0.8770    -1.4250 h1         1 EWY       0.075700
     28 H7           6.0140     0.8920    -1.4350 h1         1 EWY       0.075700
     29 H8           8.8010    -0.0660    -5.0300 ha         1 EWY       0.148000
     30 H9          11.1120     2.0570    -5.7490 hn         1 EWY       0.314467
     31 H10         12.6050     1.6430    -6.2690 hn         1 EWY       0.314467
     32 H11         12.0680     0.0240    -2.2880 ha         1 EWY       0.127000
     33 H12         10.4980     0.0250    -0.3900 ha         1 EWY       0.137000
     34 H13          8.0690     0.0160    -0.7960 ha         1 EWY       0.133000
     35 H2           1.4190    -0.0060    -2.0350 hn         1 EWY       0.191500
     36 H103        12.3600     2.0650    -4.7030 hn         1 EWY       0.314467
@<TRIPOS>BOND
     1     1     2 2   
     2     2     3 1   
     3     2     7 1   
     4     3     4 2   
     5     3    23 1   
     6     4     5 1   
     7     4     6 1   
     8     5    24 1   
     9     5    25 1   
    10     5    26 1   
    11     6     8 2   
    12     7     8 1   
    13     7    35 1   
    14     8     9 1   
    15     9    10 1   
    16    10    11 1   
    17    10    27 1   
    18    10    28 1   
    19    11    12 2   
    20    11    13 1   
    21    13    14 ar  
    22    13    22 ar  
    23    14    15 ar  
    24    14    29 1   
    25    15    16 1   
    26    15    20 ar  
    27    16    17 2   
    28    16    18 1   
    29    16    19 2   
    30    18    30 1   
    31    18    31 1   
    32    18    36 1   
    33    20    21 ar  
    34    20    32 1   
    35    21    22 ar  
    36    21    33 1   
    37    22    34 1   
@<TRIPOS>SUBSTRUCTURE
     1 EWY         1 TEMP              0 ****  ****    0 ROOT
