@<TRIPOS>MOLECULE
EWZ
   45    46     1     0     0
SMALL
bcc


@<TRIPOS>ATOM
      1 O7           0.0000     0.0000     0.0000 o          1 EWZ      -0.657500
      2 C2           1.2210     0.0000     0.0000 c          1 EWZ       0.581700
      3 C3           1.9370     0.0000     1.2100 cc         1 EWZ      -0.285200
      4 C4           3.3020     0.0010     1.1680 cd         1 EWZ       0.160400
      5 C8           4.0920     0.0000     2.4500 c3         1 EWZ      -0.018800
      6 C15          4.9730     1.2500     2.5070 c3         1 EWZ       0.009900
      7 C14          3.1330    -0.0000     3.6420 c3         1 EWZ       0.009900
      8 C9           4.9750    -1.2480     2.5060 c3         1 EWZ       0.009900
      9 N5           3.9350     0.0020    -0.0030 nd         1 EWZ      -0.595300
     10 N1           1.9070    -0.0050    -1.1620 ns         1 EWZ       0.072600
     11 C6           3.2690     0.0020    -1.1410 cc         1 EWZ       0.325800
     12 S10          4.1580    -0.0050    -2.6630 ss         1 EWZ      -0.229300
     13 C11          5.8560     0.0070    -2.0350 c3         1 EWZ      -0.011300
     14 C12          6.8200     0.0040    -3.1940 c          1 EWZ       0.625700
     15 O13          6.4010    -0.0050    -4.3310 o          1 EWZ      -0.497100
     16 C16          8.2700     0.0120    -2.9440 ca         1 EWZ      -0.185600
     17 C21          8.7570     0.0230    -1.6330 ca         1 EWZ       0.040000
     18 C20         10.1170     0.0300    -1.4060 ca         1 EWZ      -0.100000
     19 C19         11.0000     0.0280    -2.4730 ca         1 EWZ       0.036400
     20 Cl          12.7110     0.0370    -2.1800 cl         1 EWZ       0.033600
     21 C17          9.1680     0.0030    -4.0160 ca         1 EWZ       0.097000
     22 C18         10.5250     0.0150    -3.7750 ca         1 EWZ      -0.234500
     23 S22         11.6570     0.0050    -5.1240 sy         1 EWZ       0.943200
     24 O23         12.6140    -1.0060    -4.8370 o          1 EWZ      -0.486300
     25 O25         10.8710     0.0170    -6.3080 o          1 EWZ      -0.486300
     26 N26         12.4740     1.4440    -5.0900 nz         1 EWZ      -0.144500
     27 H1           1.4240    -0.1970     2.1430 ha         1 EWZ       0.166000
     28 H2           5.4170     1.3350     3.4910 hc         1 EWZ       0.009589
     29 H3           4.3690     2.1270     2.3060 hc         1 EWZ       0.009589
     30 H4           5.7570     1.1730     1.7630 hc         1 EWZ       0.009589
     31 H5           3.7010     0.0440     4.5640 hc         1 EWZ       0.009589
     32 H6           2.5390    -0.9070     3.6280 hc         1 EWZ       0.009589
     33 H7           2.4780     0.8610     3.5800 hc         1 EWZ       0.009589
     34 H8           5.7930    -1.1430     1.8040 hc         1 EWZ       0.009589
     35 H9           4.3850    -2.1190     2.2450 hc         1 EWZ       0.009589
     36 H10          5.3710    -1.3660     3.5070 hc         1 EWZ       0.009589
     37 H11          1.4180    -0.0060    -2.0350 hn         1 EWZ       0.191500
     38 H12          6.0140     0.8960    -1.4360 h1         1 EWZ       0.075200
     39 H13          6.0220    -0.8730    -1.4250 h1         1 EWZ       0.075200
     40 H14          8.0690     0.1010    -0.8000 ha         1 EWZ       0.136000
     41 H15         10.4950     0.0520    -0.3920 ha         1 EWZ       0.144000
     42 H16          8.7970     0.0580    -5.0330 ha         1 EWZ       0.158000
     43 H17         12.8870     1.6150    -5.9850 hn         1 EWZ       0.317800
     44 H18         11.8380     2.1840    -4.8700 hn         1 EWZ       0.317800
     45 H263        13.1920     1.4040    -4.3940 hn         1 EWZ       0.317800
@<TRIPOS>BOND
     1     1     2 2   
     2     2     3 1   
     3     2    10 1   
     4     3     4 2   
     5     3    27 1   
     6     4     5 1   
     7     4     9 1   
     8     5     6 1   
     9     5     7 1   
    10     5     8 1   
    11     6    28 1   
    12     6    29 1   
    13     6    30 1   
    14     7    31 1   
    15     7    32 1   
    16     7    33 1   
    17     8    34 1   
    18     8    35 1   
    19     8    36 1   
    20     9    11 2   
    21    10    11 1   
    22    10    37 1   
    23    11    12 1   
    24    12    13 1   
    25    13    14 1   
    26    13    38 1   
    27    13    39 1   
    28    14    15 2   
    29    14    16 1   
    30    16    17 ar  
    31    16    21 ar  
    32    17    18 ar  
    33    17    40 1   
    34    18    19 ar  
    35    18    41 1   
    36    19    20 1   
    37    19    22 ar  
    38    21    22 ar  
    39    21    42 1   
    40    22    23 1   
    41    23    24 2   
    42    23    25 2   
    43    23    26 1   
    44    26    43 1   
    45    26    44 1   
    46    26    45 1   
@<TRIPOS>SUBSTRUCTURE
     1 EWZ         1 TEMP              0 ****  ****    0 ROOT
