@<TRIPOS>MOLECULE
molecule
   86    91     1     0     0
SMALL
bcc


@<TRIPOS>ATOM
      1 C            0.0000     0.0000     0.0000 c3         1 EX1       0.172500
      2 C1           1.5310     0.0000     0.0000 c3         1 EX1      -0.096900
      3 C2           2.0370     0.0000     1.4460 c3         1 EX1       0.095500
      4 C14          6.4400     1.7070     2.6120 ca         1 EX1       0.157600
      5 N1          10.1260    -3.1410     1.1020 n          1 EX1      -0.355000
      6 C15          5.6680     0.5750     2.8470 ca         1 EX1      -0.123000
      7 C16          4.2960     0.6750     2.9120 ca         1 EX1      -0.130000
      8 C17          8.4190     0.3950     2.2080 ca         1 EX1       0.936900
      9 C18          8.1760    -1.7760     1.4720 ca         1 EX1       0.476200
     10 C19          9.5550    -1.9350     1.5070 ca         1 EX1      -0.253000
     11 C20         10.3320    -0.8630     1.9460 ca         1 EX1       0.750200
     12 C21         12.1970    -1.9330     3.0020 ca         1 EX1       0.196600
     13 C22         12.9830    -1.5220     4.0700 ca         1 EX1      -0.153000
     14 N2          11.7060    -0.9950     2.1010 na         1 EX1      -0.740700
     15 C3          -0.0280     1.2810     2.1450 c3         1 EX1       0.095500
     16 C13          5.8270     2.9500     2.4430 ca         1 EX1       0.091100
     17 C4          -0.5110     1.2660     0.6910 c3         1 EX1      -0.096900
     18 C5           5.8900     5.2940     2.0480 c3         1 EX1       0.129700
     19 C11          3.6760     1.9160     2.7440 ca         1 EX1      -0.129600
     20 C12          4.4520     3.0550     2.5070 ca         1 EX1      -0.148000
     21 C23         13.4430    -2.4460     4.9880 ca         1 EX1      -0.094000
     22 C24         13.1240    -3.7860     4.8490 ca         1 EX1      -0.150000
     23 C25         12.3570    -4.2140     3.7860 ca         1 EX1      -0.058000
     24 C26         11.8960    -3.2930     2.8400 ca         1 EX1      -0.159600
     25 C27         11.1480    -3.7640     1.6690 c          1 EX1       0.722100
     26 C28          9.5300    -3.7890    -0.0690 c3         1 EX1       0.087300
     27 C29         12.6240    -0.1570     1.3250 c3         1 EX1       0.257500
     28 C30          0.0550    -1.1920    -2.1080 c3         1 EX1       0.159800
     29 C31         12.4020    -0.4040    -0.1680 c3         1 EX1      -0.108600
     30 C32         12.3640     1.3170     1.6430 c3         1 EX1      -0.108600
     31 C33         -0.4130    -1.1460    -3.5640 c3         1 EX1       0.163800
     32 C35         -2.4260     0.0100    -2.8810 c3         1 EX1       0.163800
     33 C36         -1.9580    -0.0350    -1.4240 c3         1 EX1       0.159800
     34 N3           9.7380     0.2800     2.2690 nb         1 EX1      -0.794000
     35 N4           7.6510    -0.6130     1.8260 nb         1 EX1      -0.787000
     36 N6           1.4330     1.1350     2.1590 n          1 EX1      -0.484800
     37 N7          -0.4890    -0.0340    -1.3850 n3         1 EX1      -0.729600
     38 N8          -1.8820    -1.1480    -3.6030 n3         1 EX1      -0.733600
     39 H           -0.3590    -0.8710     0.5360 h1         1 EX1       0.025700
     40 H3           1.8910    -0.8860    -0.5080 hc         1 EX1       0.058450
     41 H4           1.8910     0.8860    -0.5080 hc         1 EX1       0.058450
     42 H5           1.7510    -0.9260     1.9300 h1         1 EX1       0.061700
     43 H6           3.1160     0.1010     1.4520 h1         1 EX1       0.061700
     44 H21          6.1470    -0.3880     2.9780 ha         1 EX1       0.179000
     45 H16          3.6970    -0.2090     3.0960 ha         1 EX1       0.141000
     46 H24          7.5380    -2.5940     1.1610 h4         1 EX1       0.037100
     47 H25         13.2360    -0.4740     4.1830 ha         1 EX1       0.144000
     48 H7          -0.4800     0.4570     2.6840 h1         1 EX1       0.061700
     49 H8          -0.3030     2.2200     2.6080 h1         1 EX1       0.061700
     50 H9          -1.5940     1.2760     0.6710 hc         1 EX1       0.058450
     51 H10         -0.1270     2.1380     0.1760 hc         1 EX1       0.058450
     52 H51          5.2260     5.2420     1.1940 h1         1 EX1       0.045033
     53 H52          6.6100     6.0890     1.8970 h1         1 EX1       0.045033
     54 H53          5.3120     5.4950     2.9430 h1         1 EX1       0.045033
     55 H20          3.9740     4.0190     2.3760 ha         1 EX1       0.155000
     56 H26         14.0470    -2.1190     5.8260 ha         1 EX1       0.135000
     57 H27         13.4890    -4.5040     5.5730 ha         1 EX1       0.137000
     58 H28         12.1110    -5.2640     3.6840 ha         1 EX1       0.152000
     59 H31         10.3100    -4.2460    -0.6650 h1         1 EX1       0.051367
     60 H30          9.0080    -3.0490    -0.6640 h1         1 EX1       0.051367
     61 H29          8.8310    -4.5500     0.2550 h1         1 EX1       0.051367
     62 H32         13.6460    -0.4070     1.5840 h1         1 EX1       0.065700
     63 H301         1.1380    -1.1600    -2.0760 h1         1 EX1       0.042200
     64 H302        -0.2990    -2.1050    -1.6440 h1         1 EX1       0.042200
     65 H312        13.0790     0.2180    -0.7410 hc         1 EX1       0.045033
     66 H313        12.5910    -1.4470    -0.3930 hc         1 EX1       0.045033
     67 H311        11.3790    -0.1590    -0.4260 hc         1 EX1       0.045033
     68 H321        13.2650     1.8900     1.4640 hc         1 EX1       0.045033
     69 H322        12.0730     1.4160     2.6820 hc         1 EX1       0.045033
     70 H323        11.5680     1.6880     1.0090 hc         1 EX1       0.045033
     71 H331        -0.0370    -2.0150    -4.0900 h1         1 EX1       0.040700
     72 H33         -0.0410    -0.2430    -4.0330 h1         1 EX1       0.040700
     73 H35         -3.5080    -0.0210    -2.9130 h1         1 EX1       0.040700
     74 H351        -2.0720     0.9230    -3.3450 h1         1 EX1       0.040700
     75 H361        -2.3300    -0.9370    -0.9540 h1         1 EX1       0.042200
     76 H36         -2.3330     0.8350    -0.8980 h1         1 EX1       0.042200
     77 C6           2.2060     2.0240     2.8130 c          1 EX1       0.680700
     78 C37         -2.3710    -1.1810    -4.9880 c3         1 EX1       0.152100
     79 N5           7.8280     1.6030     2.5530 nu         1 EX1      -0.736300
     80 O2           6.5840     4.0560     2.2130 os         1 EX1      -0.339900
     81 O3           1.6920     2.9160     3.4600 o          1 EX1      -0.610100
     82 O1          11.4960    -4.8200     1.1770 o          1 EX1      -0.645500
     83 H37         -3.4530    -1.2150    -4.9880 h1         1 EX1       0.032033
     84 H372        -2.0370    -0.2930    -5.5110 h1         1 EX1       0.032033
     85 H371        -1.9820    -2.0610    -5.4870 h1         1 EX1       0.032033
     86 H23          8.4000     2.3970     2.7640 hn         1 EX1       0.479800
@<TRIPOS>BOND
     1     9    35 ar
     2     9    10 ar
     3    26     5 1
     4    35     8 ar
     5     5    10 1
     6     5    25 1
     7    82    25 2
     8    10    11 ar
     9    25    24 1
    10     8    79 1
    11     8    34 ar
    12    23    24 ar
    13    23    22 ar
    14    79     4 1
    15    80    18 1
    16    80    16 1
    17    24    12 ar
    18    22    21 ar
    19    11    34 ar
    20    11    14 1
    21     4    16 ar
    22     4     6 ar
    23    16    20 ar
    24    12    14 1
    25    12    13 ar
    26    21    13 ar
    27    14    27 1
    28    20    19 ar
    29     6     7 ar
    30    27    29 1
    31    27    30 1
    32     7    19 ar
    33    19    77 1
    34    77    81 2
    35    77    36 1
    36    15    36 1
    37    15    17 1
    38    36     3 1
    39    17     1 1
    40     3     2 1
    41     1     2 1
    42     1    37 1
    43    33    37 1
    44    33    32 1
    45    37    28 1
    46    32    38 1
    47    28    31 1
    48    38    31 1
    49    38    78 1
    50     1    39 1
    51     2    40 1
    52     2    41 1
    53     3    42 1
    54     3    43 1
    55     6    44 1
    56     7    45 1
    57     9    46 1
    58    13    47 1
    59    15    48 1
    60    15    49 1
    61    17    50 1
    62    17    51 1
    63    18    52 1
    64    18    53 1
    65    18    54 1
    66    20    55 1
    67    21    56 1
    68    22    57 1
    69    23    58 1
    70    26    59 1
    71    26    60 1
    72    26    61 1
    73    27    62 1
    74    28    63 1
    75    28    64 1
    76    29    65 1
    77    29    66 1
    78    29    67 1
    79    30    68 1
    80    30    69 1
    81    30    70 1
    82    31    71 1
    83    31    72 1
    84    32    73 1
    85    32    74 1
    86    33    75 1
    87    33    76 1
    88    78    83 1
    89    78    84 1
    90    78    85 1
    91    79    86 1
@<TRIPOS>SUBSTRUCTURE
     1 EX1         1 TEMP              0 ****  ****    0 ROOT
