@<TRIPOS>MOLECULE
EX1
   86    91     1     0     0
SMALL
bcc


@<TRIPOS>ATOM
      1 C            0.0000     0.0000     0.0000 c3         1 EX1       0.131500
      2 C1           1.5310     0.0000     0.0000 c3         1 EX1      -0.052400
      3 C2           2.0370     0.0000     1.4460 c3         1 EX1       0.030500
      4 C14          6.4400     1.7070     2.6120 ca         1 EX1      -0.017400
      5 N1          10.1260    -3.1410     1.1020 n          1 EX1       0.056000
      6 C15          5.6680     0.5750     2.8470 ca         1 EX1      -0.109000
      7 C16          4.2960     0.6750     2.9120 ca         1 EX1      -0.112000
      8 C17          8.4190     0.3950     2.2080 ca         1 EX1       0.700900
      9 C18          8.1760    -1.7760     1.4720 ca         1 EX1       0.470200
     10 C19          9.5550    -1.9350     1.5070 ca         1 EX1      -0.398000
     11 C20         10.3320    -0.8630     1.9460 ca         1 EX1       0.588200
     12 C21         12.1970    -1.9330     3.0020 ca         1 EX1       0.062600
     13 C22         12.9830    -1.5220     4.0700 ca         1 EX1      -0.129000
     14 N2          11.7060    -0.9950     2.1010 na         1 EX1      -0.375700
     15 C3          -0.0280     1.2810     2.1450 c3         1 EX1       0.030500
     16 C13          5.8270     2.9500     2.4430 ca         1 EX1       0.105100
     17 C4          -0.5110     1.2660     0.6910 c3         1 EX1      -0.052400
     18 C5           5.8900     5.2940     2.0480 c3         1 EX1       0.247700
     19 C11          3.6760     1.9160     2.7440 ca         1 EX1      -0.127600
     20 C12          4.4520     3.0550     2.5070 ca         1 EX1      -0.131000
     21 C23         13.4430    -2.4460     4.9880 ca         1 EX1      -0.065000
     22 C24         13.1240    -3.7860     4.8490 ca         1 EX1      -0.123000
     23 C25         12.3570    -4.2140     3.7860 ca         1 EX1      -0.023000
     24 C26         11.8960    -3.2930     2.8400 ca         1 EX1      -0.162600
     25 C27         11.1480    -3.7640     1.6690 c          1 EX1       0.627100
     26 C28          9.5300    -3.7890    -0.0690 c3         1 EX1       0.046300
     27 C29         12.6240    -0.1570     1.3250 c3         1 EX1       0.161500
     28 C30          0.0550    -1.1920    -2.1080 c3         1 EX1       0.141800
     29 C31         12.4020    -0.4040    -0.1680 c3         1 EX1      -0.021600
     30 C32         12.3640     1.3170     1.6430 c3         1 EX1      -0.021600
     31 C33         -0.4130    -1.1460    -3.5640 c3         1 EX1       0.155800
     32 C35         -2.4260     0.0100    -2.8810 c3         1 EX1       0.155800
     33 C36         -1.9580    -0.0350    -1.4240 c3         1 EX1       0.141800
     34 N3           9.7380     0.2800     2.2690 nb         1 EX1      -0.683000
     35 N4           7.6510    -0.6130     1.8260 nb         1 EX1      -0.682000
     36 N6           1.4330     1.1350     2.1590 n          1 EX1      -0.142800
     37 N7          -0.4890    -0.0340    -1.3850 n3         1 EX1      -0.538600
     38 N8          -1.8820    -1.1480    -3.6030 n3         1 EX1      -0.549600
     39 H           -0.3590    -0.8710     0.5360 h1         1 EX1       0.012700
     40 H3           1.8910    -0.8860    -0.5080 hc         1 EX1       0.033200
     41 H4           1.8910     0.8860    -0.5080 hc         1 EX1       0.033200
     42 H5           1.7510    -0.9260     1.9300 h1         1 EX1       0.038450
     43 H6           3.1160     0.1010     1.4520 h1         1 EX1       0.038450
     44 H21          6.1470    -0.3880     2.9780 ha         1 EX1       0.156000
     45 H16          3.6970    -0.2090     3.0960 ha         1 EX1       0.118000
     46 H24          7.5380    -2.5940     1.1610 h4         1 EX1      -0.006900
     47 H25         13.2360    -0.4740     4.1830 ha         1 EX1       0.117000
     48 H7          -0.4800     0.4570     2.6840 h1         1 EX1       0.038450
     49 H8          -0.3030     2.2200     2.6080 h1         1 EX1       0.038450
     50 H9          -1.5940     1.2760     0.6710 hc         1 EX1       0.033200
     51 H10         -0.1270     2.1380     0.1760 hc         1 EX1       0.033200
     52 H51          5.2260     5.2420     1.1940 h1         1 EX1       0.001367
     53 H52          6.6100     6.0890     1.8970 h1         1 EX1       0.001367
     54 H53          5.3120     5.4950     2.9430 h1         1 EX1       0.001367
     55 H20          3.9740     4.0190     2.3760 ha         1 EX1       0.136000
     56 H26         14.0470    -2.1190     5.8260 ha         1 EX1       0.104000
     57 H27         13.4890    -4.5040     5.5730 ha         1 EX1       0.108000
     58 H28         12.1110    -5.2640     3.6840 ha         1 EX1       0.121000
     59 H31         10.3100    -4.2460    -0.6650 h1         1 EX1       0.022033
     60 H30          9.0080    -3.0490    -0.6640 h1         1 EX1       0.022033
     61 H29          8.8310    -4.5500     0.2550 h1         1 EX1       0.022033
     62 H32         13.6460    -0.4070     1.5840 h1         1 EX1       0.039700
     63 H301         1.1380    -1.1600    -2.0760 h1         1 EX1       0.019200
     64 H302        -0.2990    -2.1050    -1.6440 h1         1 EX1       0.019200
     65 H312        13.0790     0.2180    -0.7410 hc         1 EX1       0.013867
     66 H313        12.5910    -1.4470    -0.3930 hc         1 EX1       0.013867
     67 H311        11.3790    -0.1590    -0.4260 hc         1 EX1       0.013867
     68 H321        13.2650     1.8900     1.4640 hc         1 EX1       0.013867
     69 H322        12.0730     1.4160     2.6820 hc         1 EX1       0.013867
     70 H323        11.5680     1.6880     1.0090 hc         1 EX1       0.013867
     71 H331        -0.0370    -2.0150    -4.0900 h1         1 EX1       0.013700
     72 H33         -0.0410    -0.2430    -4.0330 h1         1 EX1       0.013700
     73 H35         -3.5080    -0.0210    -2.9130 h1         1 EX1       0.013700
     74 H351        -2.0720     0.9230    -3.3450 h1         1 EX1       0.013700
     75 H361        -2.3300    -0.9370    -0.9540 h1         1 EX1       0.019200
     76 H36         -2.3330     0.8350    -0.8980 h1         1 EX1       0.019200
     77 C6           2.2060     2.0240     2.8130 c          1 EX1       0.613700
     78 C37         -2.3710    -1.1810    -4.9880 c3         1 EX1       0.189100
     79 N5           7.8280     1.6030     2.5530 nu         1 EX1      -0.256300
     80 O2           6.5840     4.0560     2.2130 os         1 EX1      -0.318900
     81 O3           1.6920     2.9160     3.4600 o          1 EX1      -0.651100
     82 O1          11.4960    -4.8200     1.1770 o          1 EX1      -0.688500
     83 H37         -3.4530    -1.2150    -4.9880 h1         1 EX1       0.000367
     84 H372        -2.0370    -0.2930    -5.5110 h1         1 EX1       0.000367
     85 H371        -1.9820    -2.0610    -5.4870 h1         1 EX1       0.000367
     86 H23          8.4000     2.3970     2.7640 hn         1 EX1       0.302800
@<TRIPOS>BOND
     1     1     2 1   
     2     1    17 1   
     3     1    37 1   
     4     1    39 1   
     5     2     3 1   
     6     2    40 1   
     7     2    41 1   
     8     3    36 1   
     9     3    42 1   
    10     3    43 1   
    11     4     6 ar  
    12     4    16 ar  
    13     4    79 1   
    14     5    10 1   
    15     5    25 1   
    16     5    26 1   
    17     6     7 ar  
    18     6    44 1   
    19     7    19 ar  
    20     7    45 1   
    21     8    34 ar  
    22     8    35 ar  
    23     8    79 1   
    24     9    10 ar  
    25     9    35 ar  
    26     9    46 1   
    27    10    11 ar  
    28    11    14 1   
    29    11    34 ar  
    30    12    13 ar  
    31    12    14 1   
    32    12    24 ar  
    33    13    21 ar  
    34    13    47 1   
    35    14    27 1   
    36    15    17 1   
    37    15    36 1   
    38    15    48 1   
    39    15    49 1   
    40    16    20 ar  
    41    16    80 1   
    42    17    50 1   
    43    17    51 1   
    44    18    52 1   
    45    18    53 1   
    46    18    54 1   
    47    18    80 1   
    48    19    20 ar  
    49    19    77 1   
    50    20    55 1   
    51    21    22 ar  
    52    21    56 1   
    53    22    23 ar  
    54    22    57 1   
    55    23    24 ar  
    56    23    58 1   
    57    24    25 1   
    58    25    82 2   
    59    26    59 1   
    60    26    60 1   
    61    26    61 1   
    62    27    29 1   
    63    27    30 1   
    64    27    62 1   
    65    28    31 1   
    66    28    37 1   
    67    28    63 1   
    68    28    64 1   
    69    29    65 1   
    70    29    66 1   
    71    29    67 1   
    72    30    68 1   
    73    30    69 1   
    74    30    70 1   
    75    31    38 1   
    76    31    71 1   
    77    31    72 1   
    78    32    33 1   
    79    32    38 1   
    80    32    73 1   
    81    32    74 1   
    82    33    37 1   
    83    33    75 1   
    84    33    76 1   
    85    36    77 1   
    86    38    78 1   
    87    77    81 2   
    88    78    83 1   
    89    78    84 1   
    90    78    85 1   
    91    79    86 1   
@<TRIPOS>SUBSTRUCTURE
     1 EX1         1 TEMP              0 ****  ****    0 ROOT
