@<TRIPOS>MOLECULE
molecule
   74    79     1     0     0
SMALL
bcc


@<TRIPOS>ATOM
      1 C7           0.0000     0.0000     0.0000 cc         1 EX4      -0.254600
      2 C6           1.3580     0.0000     0.0000 cd         1 EX4       0.361800
      3 C1           1.5920    -1.2120     5.5940 c3         1 EX4       0.168300
      4 N1           1.7700     0.0000     1.2840 nd         1 EX4      -0.687000
      5 C5           0.7270    -0.0010     2.0680 cc         1 EX4       0.415800
      6 C4           0.7640    -0.0020     3.5740 c3         1 EX4      -0.085000
      7 C3           1.4980     1.2480     4.0680 c3         1 EX4      -0.071900
      8 C2           1.5850     1.2110     5.5960 c3         1 EX4       0.168300
      9 C28          6.3090     0.3920     9.0760 c          1 EX4       0.704500
     10 N6           5.2420     0.0830     9.8340 ns         1 EX4      -0.537400
     11 C23          3.9690     0.0370     9.2830 ca         1 EX4       0.594200
     12 N5           2.8920     0.0040    10.0630 nb         1 EX4      -0.784000
     13 C22          1.6830    -0.0270     9.5370 ca         1 EX4       0.717900
     14 N4           1.4850    -0.0260     8.2340 nb         1 EX4      -0.799000
     15 C27          6.1340     0.8390     7.6480 c3         1 EX4      -0.152400
     16 C25          5.0020     0.0480     6.9920 c3         1 EX4      -0.013400
     17 C26          5.4660    -1.3860     6.7320 c3         1 EX4      -0.088100
     18 C24          3.8040     0.0280     7.9060 ca         1 EX4      -0.337900
     19 C21          2.5150     0.0010     7.3870 ca         1 EX4       0.661200
     20 N            2.3030     0.0020     6.0180 nh         1 EX4      -0.718300
     21 C            1.5040    -1.2480     4.0680 c3         1 EX4      -0.071900
     22 N2          -0.3920     0.0050     1.3100 na         1 EX4      -0.177900
     23 C8          -1.7720     0.0060     1.8020 c3         1 EX4       0.038300
     24 C9          -2.2060     1.4430     2.0970 c3         1 EX4       0.136800
     25 N3          -3.5900     1.4450     2.5910 n3         1 EX4      -0.719600
     26 C13         -3.9660     2.7730     3.1090 c3         1 EX4       0.149300
     27 C12         -5.2170     3.2310     2.3310 c3         1 EX4      -0.096400
     28 C11         -5.8150     1.8970     1.8140 c3         1 EX4      -0.096400
     29 C10         -4.5360     1.0760     1.5160 c3         1 EX4       0.149300
     30 C14          2.2340     0.0000    -1.1980 ca         1 EX4      -0.111500
     31 C19          1.6760     0.1060    -2.4700 ca         1 EX4      -0.079000
     32 C18          2.4940     0.1060    -3.5820 ca         1 EX4      -0.173000
     33 C17          3.8670     0.0020    -3.4350 ca         1 EX4       0.175900
     34 F            4.6640     0.0020    -4.5260 f          1 EX4      -0.125900
     35 C16          4.4260    -0.1020    -2.1710 ca         1 EX4      -0.223300
     36 C15          3.6170    -0.0990    -1.0540 ca         1 EX4      -0.037000
     37 C20          5.9210    -0.2160    -2.0160 c3         1 EX4       0.681200
     38 F1           6.5340     0.9160    -2.5660 f          1 EX4      -0.219633
     39 F2           6.2440    -0.3080    -0.6590 f          1 EX4      -0.219633
     40 F3           6.3740    -1.3600    -2.6820 f          1 EX4      -0.219633
     41 H1          -0.6470     0.0010    -0.8690 h4         1 EX4       0.176000
     42 H2           2.1310    -2.0850     5.9440 h1         1 EX4       0.049450
     43 H3           0.5930    -1.2080     6.0120 h1         1 EX4       0.049450
     44 H4          -0.2460    -0.0040     3.9650 hc         1 EX4       0.057700
     45 H5           2.4970     1.2680     3.6500 hc         1 EX4       0.063950
     46 H6           0.9530     2.1320     3.7600 hc         1 EX4       0.063950
     47 H7           2.1190     2.0860     5.9470 h1         1 EX4       0.049450
     48 H8           0.5860     1.2000     6.0140 h1         1 EX4       0.049450
     49 H9           5.3670    -0.1150    10.8070 hn         1 EX4       0.350500
     50 H10          0.8240    -0.0490    10.1970 h5         1 EX4       0.062100
     51 H11          5.8730     1.8900     7.6420 hc         1 EX4       0.082700
     52 H12          7.0530     0.6440     7.1080 hc         1 EX4       0.082700
     53 H13          4.7310     0.5200     6.0560 hc         1 EX4       0.089700
     54 H14          4.7360    -2.0800     7.1300 hc         1 EX4       0.043033
     55 H15          5.5700    -1.5440     5.6650 hc         1 EX4       0.043033
     56 H16          6.4210    -1.5500     7.2160 hc         1 EX4       0.043033
     57 H17          2.5030    -1.2630     3.6490 hc         1 EX4       0.063950
     58 H18          0.9640    -2.1340     3.7580 hc         1 EX4       0.063950
     59 H19         -2.4240    -0.4210     1.0490 h1         1 EX4       0.072700
     60 H20         -1.8330    -0.5830     2.7090 h1         1 EX4       0.072700
     61 H21         -2.1450     2.0320     1.1900 h1         1 EX4       0.046700
     62 H22         -1.5540     1.8700     2.8490 h1         1 EX4       0.046700
     63 H24         -4.1940     2.7050     4.1650 h1         1 EX4       0.045950
     64 H25         -3.1550     3.4740     2.9460 h1         1 EX4       0.045950
     65 H26         -4.9380     3.8700     1.5020 hc         1 EX4       0.053950
     66 H27         -5.9150     3.7310     2.9920 hc         1 EX4       0.053950
     67 H28         -6.4100     1.4180     2.5820 hc         1 EX4       0.053950
     68 H29         -6.3900     2.0560     0.9100 hc         1 EX4       0.053950
     69 H30         -4.7530     0.0150     1.5550 h1         1 EX4       0.045950
     70 H31         -4.1310     1.3490     0.5490 h1         1 EX4       0.045950
     71 H32          0.6030     0.1870    -2.5870 ha         1 EX4       0.138000
     72 H33          2.0610     0.1880    -4.5720 ha         1 EX4       0.152000
     73 H34          4.0550    -0.1800    -0.0670 ha         1 EX4       0.177000
     74 O            7.4230     0.3150     9.5480 o          1 EX4      -0.612500
@<TRIPOS>BOND
     1    13    12 ar
     2    13    14 ar
     3    12    11 ar
     4    14    19 ar
     5    11    10 1
     6    11    18 ar
     7    17    16 1
     8    40    37 1
     9    19    18 ar
    10    19    20 1
    11     3    21 1
    12     3    20 1
    13    10     9 1
    14    18    16 1
    15    21     6 1
    16    20     8 1
    17    38    37 1
    18    16    15 1
    19    37    35 1
    20    37    39 1
    21     9    74 2
    22     9    15 1
    23    36    35 ar
    24    36    30 ar
    25    35    33 ar
    26     6     5 1
    27     6     7 1
    28     5     4 2
    29     5    22 1
    30     8     7 1
    31     4     2 1
    32    22     1 1
    33    22    23 1
    34     2     1 2
    35     2    30 1
    36    30    31 ar
    37    23    24 1
    38    33    34 1
    39    33    32 ar
    40    31    32 ar
    41    24    25 1
    42    25    26 1
    43    25    29 1
    44    26    27 1
    45    29    28 1
    46    27    28 1
    47     1    41 1
    48     3    42 1
    49     3    43 1
    50     6    44 1
    51     7    45 1
    52     7    46 1
    53     8    47 1
    54     8    48 1
    55    10    49 1
    56    13    50 1
    57    15    51 1
    58    15    52 1
    59    16    53 1
    60    17    54 1
    61    17    55 1
    62    17    56 1
    63    21    57 1
    64    21    58 1
    65    23    59 1
    66    23    60 1
    67    24    61 1
    68    24    62 1
    69    26    63 1
    70    26    64 1
    71    27    65 1
    72    27    66 1
    73    28    67 1
    74    28    68 1
    75    29    69 1
    76    29    70 1
    77    31    71 1
    78    32    72 1
    79    36    73 1
@<TRIPOS>SUBSTRUCTURE
     1 EX4         1 TEMP              0 ****  ****    0 ROOT
