@<TRIPOS>MOLECULE
molecule
   32    34     1     0     0
SMALL
bcc


@<TRIPOS>ATOM
      1 C1           0.0000     0.0000     0.0000 ca         1 EX7      -0.154000
      2 C2           1.3860     0.0000     0.0000 ca         1 EX7      -0.131000
      3 C3           2.0840     0.0000     1.1750 ca         1 EX7      -0.082000
      4 C11          1.7860    -1.1760    10.7320 ca         1 EX7      -0.123000
      5 C12          0.7820    -1.8610    10.0730 ca         1 EX7       0.030400
      6 C13          0.7380    -1.8630     8.6900 ca         1 EX7      -0.121000
      7 C14         -0.0030     0.0010     2.3990 ca         1 EX7      -0.110200
      8 Cl          -0.4220    -2.7210    10.9820 cl         1 EX7      -0.110400
      9 C8           1.6970    -1.1790     7.9670 ca         1 EX7      -0.080300
     10 C9           2.7010    -0.4930     8.6260 ca         1 EX7      -0.121000
     11 C10          2.7430    -0.4870    10.0080 ca         1 EX7      -0.117000
     12 C7           1.6480    -1.1790     6.4610 c3         1 EX7      -0.030100
     13 C5           0.7580     0.0010     4.4710 cc         1 EX7       0.420800
     14 N1          -0.3810     0.0030     3.7280 na         1 EX7      -0.252300
     15 C4           1.4000     0.0000     2.3930 ca         1 EX7       0.107400
     16 N            1.8000     0.0010     3.6910 nd         1 EX7      -0.607100
     17 C           -0.7000     0.0010     1.1930 ca         1 EX7       0.108100
     18 O           -2.0590     0.0070     1.1880 oh         1 EX7      -0.524100
     19 H1          -0.5380     0.0000    -0.9400 ha         1 EX7       0.141000
     20 H2           1.9220    -0.0010    -0.9410 ha         1 EX7       0.136000
     21 H3           3.1670    -0.0000     1.1620 ha         1 EX7       0.144000
     22 H4           1.8200    -1.1730    11.8150 ha         1 EX7       0.144000
     23 H5          -0.0490    -2.4000     8.1740 ha         1 EX7       0.143000
     24 H6           3.4510     0.0450     8.0600 ha         1 EX7       0.139000
     25 H7           3.5290     0.0510    10.5240 ha         1 EX7       0.138000
     26 H8           2.6540    -1.0920     6.0670 hc         1 EX7       0.067200
     27 H9           1.2040    -2.1050     6.1140 hc         1 EX7       0.067200
     28 H10         -0.1990    -0.0840     6.3700 hc         1 EX7       0.063200
     29 H11          1.2510     0.9280     6.3230 hc         1 EX7       0.063200
     30 H12         -1.3090     0.1390     4.0760 hn         1 EX7       0.309700
     31 H14         -2.3760    -0.8360     0.9080 ho         1 EX7       0.418000
     32 C6           0.8070     0.0030     5.9770 c3         1 EX7      -0.076700
@<TRIPOS>BOND
     1    16    13 2
     2    16    15 1
     3    32    13 1
     4    32    12 1
     5     3    15 ar
     6     3     2 ar
     7    10    11 ar
     8    10     9 ar
     9    13    14 1
    10    11     4 ar
    11    15     7 ar
    12     2     1 ar
    13    12     9 1
    14     9     6 ar
    15    14     7 1
    16     7    17 ar
    17     4     5 ar
    18     1    17 ar
    19    17    18 1
    20     6     5 ar
    21     5     8 1
    22     1    19 1
    23     2    20 1
    24     3    21 1
    25     4    22 1
    26     6    23 1
    27    10    24 1
    28    11    25 1
    29    12    26 1
    30    12    27 1
    31    32    28 1
    32    32    29 1
    33    14    30 1
    34    18    31 1
@<TRIPOS>SUBSTRUCTURE
     1 EX7         1 TEMP              0 ****  ****    0 ROOT
