@<TRIPOS>MOLECULE
molecule
   17    17     1     0     0
SMALL
bcc


@<TRIPOS>ATOM
      1 O            0.0000     0.0000     0.0000 o          1 EX8      -0.489100
      2 C            1.2070     0.0000     0.0000 c          1 EX8       0.569900
      3 CA           1.9610     0.0000     1.3050 c3         1 EX8      -0.004500
      4 CB           2.8560    -1.2530     1.4100 c3         1 EX8       0.172600
      5 FAG          4.1730    -0.9410     1.0550 f          1 EX8      -0.224300
      6 N            1.0180    -0.1160     2.4480 n7         1 EX8      -0.767200
      7 CD1          1.8550    -0.6370     3.5590 c3         1 EX8       0.119800
      8 CG           2.7860    -1.6730     2.8930 c3         1 EX8       0.117100
      9 OD2          4.0870    -1.6240     3.4840 oh         1 EX8      -0.584800
     10 H1           1.7480     0.0340    -0.9380 h4         1 EX8       0.005200
     11 H2           2.5590     0.8980     1.4020 h1         1 EX8       0.071700
     12 H3           2.4680    -2.0440     0.7800 h1         1 EX8       0.069700
     13 H4           0.6710     0.7910     2.6880 hn         1 EX8       0.364800
     14 H6           2.4370     0.1630     3.9990 h1         1 EX8       0.058200
     15 H7           1.2330    -1.1160     4.3060 h1         1 EX8       0.058200
     16 H8           2.3640    -2.6670     2.9810 h1         1 EX8       0.055700
     17 H9           4.2720    -2.4470     3.9050 ho         1 EX8       0.408000
@<TRIPOS>BOND
     1     6     7 1
     2     6     3 1
     3     7     8 1
     4     9     8 1
     5     3     2 1
     6     3     4 1
     7     8     4 1
     8     1     2 2
     9     4     5 1
    10     2    10 1
    11     3    11 1
    12     4    12 1
    13     6    13 1
    14     7    14 1
    15     7    15 1
    16     8    16 1
    17     9    17 1
@<TRIPOS>SUBSTRUCTURE
     1 EX8         1 TEMP              0 ****  ****    0 ROOT
