@<TRIPOS>MOLECULE
molecule
   23    24     1     0     0
SMALL
bcc


@<TRIPOS>ATOM
      1 C2           0.0000     0.0000     0.0000 ca         1 EXB      -0.107000
      2 C5           1.4210     0.0010     2.3930 ca         1 EXB      -0.083000
      3 C4           2.0810     0.0000     1.1970 ca         1 EXB      -0.158000
      4 C3           1.3790     0.0000     0.0000 ca         1 EXB      -0.138000
      5 C6           0.0240     0.0020     2.4180 ca         1 EXB       0.081400
      6 C11         -3.4760    -1.4350     0.2050 c3         1 EXB      -0.205400
      7 N9          -2.0250     0.0020     1.5510 na         1 EXB      -0.135300
      8 C1          -0.6880     0.0010     1.2060 ca         1 EXB      -0.089200
      9 C8          -2.0930     0.0030     2.9090 cc         1 EXB       0.430700
     10 N7          -0.8950     0.0030     3.4160 nd         1 EXB      -0.641100
     11 C12         -4.6440    -1.4350    -0.7470 c          1 EXB       0.892600
     12 O           -5.1690    -0.3930    -1.0590 o          1 EXB      -0.846800
     13 H2          -0.5440     0.0000    -0.9370 ha         1 EXB       0.138000
     14 H5           1.9800     0.0010     3.3210 ha         1 EXB       0.126000
     15 H4           3.1650    -0.0000     1.1830 ha         1 EXB       0.115000
     16 H3           1.9170    -0.0010    -0.9400 ha         1 EXB       0.121000
     17 H11         -3.7260    -2.0200     1.0820 hc         1 EXB       0.043700
     18 H10         -2.9100     0.5870    -0.2520 h1         1 EXB       0.070200
     19 H10A        -4.0240     0.4350     1.1130 h1         1 EXB       0.070200
     20 H8          -3.0110     0.0040     3.4840 h5         1 EXB       0.069800
     21 OXT         -5.1000    -2.5940    -1.2510 o          1 EXB      -0.846800
     22 H9          -2.6120    -1.8670    -0.2840 hc         1 EXB       0.043700
     23 C10         -3.1590     0.0020     0.6240 c3         1 EXB       0.048300
@<TRIPOS>BOND
     1     1     4 ar
     2     1     8 ar
     3     1    13 1
     4     2     3 ar
     5     2     5 ar
     6     2    14 1
     7     3     4 ar
     8     3    15 1
     9     4    16 1
    10     5     8 ar
    11     5    10 1
    12     6    23 1
    13     6    11 1
    14     6    17 1
    15    23     7 1
    16    23    18 1
    17    23    19 1
    18     7     8 1
    19     7     9 1
    20     9    10 2
    21     9    20 1
    22    11    12 1
    23    11    21 1
    24     6    22 1
@<TRIPOS>SUBSTRUCTURE
     1 EXB         1 TEMP              0 ****  ****    0 ROOT
