@<TRIPOS>MOLECULE
EXB
   23    24     1     0     0
SMALL
bcc


@<TRIPOS>ATOM
      1 C2         -0.4680   -0.2370   -0.1900 ce        1 EXB     -0.102000
      2 C5          0.9130    1.2710    1.8000 c2        1 EXB     -0.143300
      3 C4          1.2490    1.1450    0.5190 c1        1 EXB     -0.090800
      4 C3          0.8510    0.3710   -0.4840 ce        1 EXB     -0.145100
      5 C6          0.3050   -0.0280    2.2750 c3        1 EXB      0.233200
      6 C11        -4.0150   -1.2310    0.4500 c3        1 EXB     -0.231400
      7 N9         -1.9080   -0.9220    1.8010 n4        1 EXB     -0.514800
      8 C1         -0.7060   -0.4380    1.1250 c2        1 EXB     -0.081200
      9 C8         -1.6610   -0.5350    3.2960 c1        1 EXB      0.228600
     10 N7         -0.4900   -0.0300    3.4980 n1        1 EXB     -0.823300
     11 C12        -3.1520   -2.0240   -0.5480 c         1 EXB      0.896600
     12 O          -2.4840   -2.9970   -0.0830 o         1 EXB     -0.837800
     13 H2         -1.1460   -0.5530   -1.0030 ha        1 EXB      0.206000
     14 H5          1.0940   -0.8310    2.3490 h1        1 EXB      0.072700
     15 H4          1.3970    0.0980   -1.3890 ha        1 EXB      0.150000
     16 H3          0.9380    2.1620    2.4280 ha        1 EXB      0.155000
     17 H11        -4.5620   -1.9570    1.1020 hc        1 EXB      0.047700
     18 H10        -2.9010    0.6160    0.7100 hx        1 EXB      0.065700
     19 H10A       -3.7490    0.0170    2.2140 hx        1 EXB      0.065700
     20 H8         -1.9770   -1.9480    1.6900 hn        1 EXB      0.476800
     21 OXT        -3.1160   -1.6490   -1.7510 o         1 EXB     -0.837800
     22 H9         -4.7610   -0.6120   -0.1050 hc        1 EXB      0.047700
     23 C10        -3.1650   -0.3020    1.3050 c3        1 EXB      0.162800
@<TRIPOS>BOND
     1    1    4 1   
     2    1    8 2   
     3    1   13 1   
     4    2    3 2   
     5    2    5 1   
     6    2   16 1   
     7    3    4 2   
     8    4   15 1   
     9    5    8 1   
    10    5   10 1   
    11    5   14 1   
    12    6   11 1   
    13    6   17 1   
    14    6   22 1   
    15    6   23 1   
    16    7    8 1   
    17    7    9 1   
    18    7   20 1   
    19    7   23 1   
    20    9   10 3   
    21   11   12 1   
    22   11   21 1   
    23   18   23 1   
    24   19   23 1   
@<TRIPOS>SUBSTRUCTURE
     1 EXB         1 TEMP              0 ****  ****    0 ROOT
