@<TRIPOS>MOLECULE
molecule
   19    20     1     0     0
SMALL
bcc


@<TRIPOS>ATOM
      1 C1           0.0000     0.0000     0.0000 ca         1 EXD      -0.140000
      2 C2           1.3870     0.0000     0.0000 ca         1 EXD      -0.131000
      3 C3           2.0850     0.0000     1.1750 ca         1 EXD      -0.069000
      4 F1           2.0940     0.3460     6.4020 f          1 EXD      -0.206967
      5 F2           0.4800    -1.2700     6.4550 f          1 EXD      -0.206967
      6 F           -0.1110     0.9370     6.4720 f          1 EXD      -0.206967
      7 C5           0.7580     0.0030     4.4710 cc         1 EXD       0.326800
      8 N1          -0.3810     0.0020     3.7280 na         1 EXD      -0.228300
      9 C6          -0.0040     0.0010     2.3990 ca         1 EXD      -0.091200
     10 C4           1.4000     0.0010     2.3940 ca         1 EXD       0.097400
     11 N            1.8000     0.0010     3.6910 nd         1 EXD      -0.544100
     12 C           -0.7000     0.0010     1.1920 ca         1 EXD       0.106100
     13 O           -2.0590     0.0070     1.1880 oh         1 EXD      -0.521100
     14 H1          -0.5380    -0.0000    -0.9400 ha         1 EXD       0.146000
     15 H2           1.9230    -0.0010    -0.9410 ha         1 EXD       0.142000
     16 H3           3.1680     0.0000     1.1620 ha         1 EXD       0.150000
     17 H4          -1.3110    -0.1250     4.0760 hn         1 EXD       0.320700
     18 H6          -2.3690     0.8510     0.9040 ho         1 EXD       0.422000
     19 C7           0.8060     0.0040     5.9770 c3         1 EXD       0.635600
@<TRIPOS>BOND
     1     6    19 1
     2    11    10 1
     3    11     7 2
     4     3    10 ar
     5     3     2 ar
     6    10     9 ar
     7     5    19 1
     8    19     7 1
     9    19     4 1
    10     7     8 1
    11     2     1 ar
    12     9     8 1
    13     9    12 ar
    14     1    12 ar
    15    12    13 1
    16     1    14 1
    17     2    15 1
    18     3    16 1
    19     8    17 1
    20    13    18 1
@<TRIPOS>SUBSTRUCTURE
     1 EXD         1 TEMP              0 ****  ****    0 ROOT
