@<TRIPOS>MOLECULE
EXE
   65    67     1     0     0
SMALL
bcc


@<TRIPOS>ATOM
      1 CAA          0.0000     0.0000     0.0000 c3         1 EXE      -0.066100
      2 CAV          1.5070     0.0000     0.0000 c          1 EXE       0.570100
      3 OAF          2.1140     0.0000     1.0510 o          1 EXE      -0.661100
      4 N            2.1810     0.0010    -1.1670 ns         1 EXE      -0.176900
      5 CA           3.6460     0.0000    -1.1670 c3         1 EXE      -0.047300
      6 CB           4.1560    -1.4370    -1.0410 c3         1 EXE      -0.064000
      7 CG1          5.6830    -1.4480    -1.1490 c3         1 EXE      -0.020100
      8 CAE          3.7360    -2.0110     0.3130 c3         1 EXE      -0.020100
      9 CG2          3.5600    -2.2900    -2.1630 c3         1 EXE      -0.020100
     10 C            4.1480     0.6010    -2.4550 c          1 EXE       0.619100
     11 O            3.4990     0.4840    -3.4720 o          1 EXE      -0.639100
     12 NBG          5.3190     1.2680    -2.4760 n          1 EXE      -0.118800
     13 CAQ          6.1620     1.5630    -1.3020 c3         1 EXE       0.005000
     14 CBC          6.9910     2.8050    -1.7110 c3         1 EXE       0.156100
     15 OAI          6.2290     4.0040    -1.5530 oh         1 EXE      -0.566800
     16 CBD          7.2670     2.5150    -3.2100 c3         1 EXE       0.156600
     17 FAJ          8.3680     1.6620    -3.3460 f          1 EXE      -0.216300
     18 CBF          5.9720     1.8160    -3.6740 c3         1 EXE      -0.058300
     19 CAW          6.3050     0.7060    -4.6370 c          1 EXE       0.567100
     20 OAG          6.0190    -0.4400    -4.3640 o          1 EXE      -0.623100
     21 NAS          6.9230     0.9880    -5.8020 ns         1 EXE      -0.185900
     22 CAP          7.2460    -0.0910    -6.7380 c3         1 EXE       0.111300
     23 CAZ          7.9280     0.4860    -7.9530 ca         1 EXE      -0.124300
     24 CAL          9.3050     0.6090    -7.9770 ca         1 EXE      -0.082000
     25 CAN          9.9340     1.1370    -9.0860 ca         1 EXE      -0.093000
     26 CAK          7.1720     0.8850    -9.0410 ca         1 EXE      -0.082000
     27 CAM          7.7890     1.4130   -10.1570 ca         1 EXE      -0.093000
     28 CBA          9.1780     1.5460   -10.1850 ca         1 EXE       0.013000
     29 CBB          9.8450     2.1120   -11.3760 cc         1 EXE      -0.054400
     30 SAU         11.2560     1.4420   -12.1930 ss         1 EXE      -0.302300
     31 CAO         11.2220     2.7220   -13.3250 cc         1 EXE       0.463300
     32 NAR         10.2440     3.5250   -13.0660 nd         1 EXE      -0.551000
     33 CAY          9.4800     3.2320   -12.0370 cd         1 EXE       0.329600
     34 CAB          8.3050     4.0800   -11.6220 c3         1 EXE      -0.020400
     35 H1          -0.3610     0.8940    -0.4940 hc         1 EXE       0.022700
     36 H2          -0.3610    -0.8750    -0.5280 hc         1 EXE       0.022700
     37 H3          -0.3610    -0.0200     1.0210 hc         1 EXE       0.022700
     38 H4           1.6810     0.0430    -2.0330 hn         1 EXE       0.197500
     39 H5           4.0070     0.5860    -0.3310 h1         1 EXE       0.062700
     40 H6           6.0430    -2.4660    -1.0710 hc         1 EXE       0.017256
     41 H7           6.1050    -0.8530    -0.3490 hc         1 EXE       0.017256
     42 H8           5.9800    -1.0320    -2.1040 hc         1 EXE       0.017256
     43 H9           2.6700    -2.2060     0.3080 hc         1 EXE       0.017256
     44 H10          4.2710    -2.9340     0.4960 hc         1 EXE       0.017256
     45 H11          3.9690    -1.2980     1.0950 hc         1 EXE       0.017256
     46 H12          2.4800    -2.2880    -2.0830 hc         1 EXE       0.017256
     47 H13          3.9270    -3.3060    -2.0790 hc         1 EXE       0.017256
     48 H14          3.8510    -1.8800    -3.1230 hc         1 EXE       0.017256
     49 H15          5.5420     1.7910    -0.4430 h1         1 EXE       0.049200
     50 H16          6.8170     0.7270    -1.0900 h1         1 EXE       0.049200
     51 H17          7.9170     2.8500    -1.1510 h1         1 EXE       0.029700
     52 H18          6.7110     4.6150    -1.0200 ho         1 EXE       0.400000
     53 H19          7.4190     3.4390    -3.7550 h1         1 EXE       0.046700
     54 H20          5.3180     2.5370    -4.1490 h1         1 EXE       0.062700
     55 H21          7.1190     1.9390    -6.0470 hn         1 EXE       0.174500
     56 H22          7.9070    -0.8010    -6.2560 h1         1 EXE       0.033200
     57 H23          6.3350    -0.5930    -7.0400 h1         1 EXE       0.033200
     58 H24          9.8920     0.2910    -7.1230 ha         1 EXE       0.112500
     59 H25         11.0130     1.2350    -9.1020 ha         1 EXE       0.117000
     60 H26          6.0940     0.7810    -9.0180 ha         1 EXE       0.112500
     61 H27          7.1960     1.7270   -11.0080 ha         1 EXE       0.117000
     62 H28         11.9220     2.8440   -14.1420 h5         1 EXE       0.025100
     63 H29          8.3690     5.0470   -12.1060 hc         1 EXE       0.016033
     64 H30          7.3850     3.5900   -11.9160 hc         1 EXE       0.016033
     65 H31          8.3170     4.2130   -10.5470 hc         1 EXE       0.016033
@<TRIPOS>BOND
     1     1     2 1   
     2     1    35 1   
     3     1    36 1   
     4     1    37 1   
     5     2     3 2   
     6     2     4 1   
     7     4     5 1   
     8     4    38 1   
     9     5     6 1   
    10     5    10 1   
    11     5    39 1   
    12     6     7 1   
    13     6     8 1   
    14     6     9 1   
    15     7    40 1   
    16     7    41 1   
    17     7    42 1   
    18     8    43 1   
    19     8    44 1   
    20     8    45 1   
    21     9    46 1   
    22     9    47 1   
    23     9    48 1   
    24    10    11 2   
    25    10    12 1   
    26    12    13 1   
    27    12    18 1   
    28    13    14 1   
    29    13    49 1   
    30    13    50 1   
    31    14    15 1   
    32    14    16 1   
    33    14    51 1   
    34    15    52 1   
    35    16    17 1   
    36    16    18 1   
    37    16    53 1   
    38    18    19 1   
    39    18    54 1   
    40    19    20 2   
    41    19    21 1   
    42    21    22 1   
    43    21    55 1   
    44    22    23 1   
    45    22    56 1   
    46    22    57 1   
    47    23    24 ar  
    48    23    26 ar  
    49    24    25 ar  
    50    24    58 1   
    51    25    28 ar  
    52    25    59 1   
    53    26    27 ar  
    54    26    60 1   
    55    27    28 ar  
    56    27    61 1   
    57    28    29 1   
    58    29    30 1   
    59    29    33 2   
    60    30    31 1   
    61    31    32 2   
    62    31    62 1   
    63    32    33 1   
    64    33    34 1   
    65    34    63 1   
    66    34    64 1   
    67    34    65 1   
@<TRIPOS>SUBSTRUCTURE
     1 EXE         1 TEMP              0 ****  ****    0 ROOT
