@<TRIPOS>MOLECULE
molecule
   27    29     1     0     0
SMALL
bcc


@<TRIPOS>ATOM
      1 C1           0.0000     0.0000     0.0000 ca         1 EXG      -0.124300
      2 C2           1.3830     0.0000     0.0000 ca         1 EXG      -0.107500
      3 C3           2.0740     0.0000     1.1970 ca         1 EXG      -0.125000
      4 C11          1.1390     2.0080    -2.9660 ca         1 EXG      -0.088000
      5 C12         -0.1380     2.1750    -2.4470 ca         1 EXG      -0.213500
      6 C10          1.7120     3.0680    -3.6480 ca         1 EXG      -0.249300
      7 C9           1.0040     4.2520    -3.7880 ca         1 EXG       0.418200
      8 N2          -0.2040     4.3910    -3.2880 nb         1 EXG      -0.641000
      9 C8          -0.8010     3.4020    -2.6250 ca         1 EXG       0.581300
     10 N1          -2.0120     3.2830    -2.0230 nc         1 EXG      -0.666700
     11 C7          -2.1280     2.0960    -1.5010 cd         1 EXG       0.448700
     12 N           -1.0030     1.3710    -1.7340 na         1 EXG      -0.153300
     13 C           -0.7530    -0.0070    -1.3050 c3         1 EXG       0.098600
     14 C6          -0.6900     0.0020     1.1970 ca         1 EXG      -0.107500
     15 C5           0.0000     0.0040     2.3940 ca         1 EXG      -0.125000
     16 C4           1.3830     0.0030     2.3940 ca         1 EXG      -0.114000
     17 H1           1.9250    -0.0020    -0.9380 ha         1 EXG       0.129500
     18 H2           3.1570    -0.0000     1.1970 ha         1 EXG       0.135000
     19 H4           2.7070     2.9740    -4.0670 ha         1 EXG       0.140000
     20 H5           1.4550     5.0790    -4.3210 h4         1 EXG       0.027100
     21 H6          -2.9960     1.7380    -0.9610 h5         1 EXG       0.075800
     22 H7          -0.1660    -0.5190    -2.0580 h1         1 EXG       0.067700
     23 H8          -1.6980    -0.5210    -1.1740 h1         1 EXG       0.067700
     24 H9          -1.7740     0.0030     1.1980 ha         1 EXG       0.129500
     25 H10         -0.5410     0.0060     3.3330 ha         1 EXG       0.135000
     26 H11          1.9250     0.0030     3.3320 ha         1 EXG       0.134000
     27 H3           1.6720     1.0730    -2.8430 ha         1 EXG       0.129000
@<TRIPOS>BOND
     1     4     6 ar
     2     4     5 ar
     3    13    12 1
     4    13     1 1
     5     6     7 ar
     6     5    12 1
     7     5     9 ar
     8    12    11 1
     9     7     8 ar
    10    11    10 2
    11     9     8 ar
    12     9    10 1
    13     1    14 ar
    14     1     2 ar
    15    14    15 ar
    16     2     3 ar
    17    15    16 ar
    18     3    16 ar
    19     2    17 1
    20     3    18 1
    21     4    27 1
    22     6    19 1
    23     7    20 1
    24    11    21 1
    25    13    22 1
    26    13    23 1
    27    14    24 1
    28    15    25 1
    29    16    26 1
@<TRIPOS>SUBSTRUCTURE
     1 EXG         1 TEMP              0 ****  ****    0 ROOT
