@<TRIPOS>MOLECULE
EXH
   65    67     1     0     0
SMALL
bcc


@<TRIPOS>ATOM
      1 CAA          0.0000     0.0000     0.0000 c3         1 EXH      -0.066100
      2 CAV          1.5070     0.0000     0.0000 c          1 EXH       0.570100
      3 OAF          2.1150     0.0000     1.0500 o          1 EXH      -0.659100
      4 N            2.1800    -0.0010    -1.1680 ns         1 EXH      -0.177900
      5 CA           3.6460    -0.0010    -1.1690 c3         1 EXH      -0.046300
      6 CB           4.1550    -1.4380    -1.0430 c3         1 EXH      -0.064000
      7 CG1          3.5530    -2.2930    -2.1600 c3         1 EXH      -0.020767
      8 CAE          5.6810    -1.4500    -1.1560 c3         1 EXH      -0.020767
      9 CG2          3.7420    -2.0090     0.3160 c3         1 EXH      -0.020767
     10 C            4.1480     0.5990    -2.4560 c          1 EXH       0.617100
     11 O            3.5230     0.4390    -3.4840 o          1 EXH      -0.635100
     12 NBG          5.2900     1.3140    -2.4670 n          1 EXH      -0.125800
     13 CAQ          6.0970     1.6620    -1.2820 c3         1 EXH      -0.004000
     14 CBC          7.5260     1.8990    -1.8320 c3         1 EXH       0.157100
     15 OAI          8.2670     2.7670    -0.9720 oh         1 EXH      -0.552800
     16 CBD          7.2260     2.5850    -3.1920 c3         1 EXH       0.166600
     17 FAJ          6.9990     3.9540    -3.0240 f          1 EXH      -0.206300
     18 CBF          5.9420     1.8700    -3.6620 c3         1 EXH      -0.069300
     19 CAW          6.2920     0.7650    -4.6230 c          1 EXH       0.562100
     20 OAG          6.0180    -0.3850    -4.3530 o          1 EXH      -0.622100
     21 NAS          6.9110     1.0550    -5.7860 ns         1 EXH      -0.194900
     22 CAP          7.2520    -0.0200    -6.7220 c3         1 EXH       0.113300
     23 CAZ          7.9310     0.5670    -7.9330 ca         1 EXH      -0.128300
     24 CAL          9.3070     0.7060    -7.9510 ca         1 EXH      -0.081000
     25 CAN          9.9350     1.2420    -9.0570 ca         1 EXH      -0.092500
     26 CAK          7.1760     0.9570    -9.0240 ca         1 EXH      -0.081000
     27 CAM          7.7920     1.4930   -10.1370 ca         1 EXH      -0.092500
     28 CBA          9.1790     1.6420   -10.1580 ca         1 EXH       0.018000
     29 CBB          9.8450     2.2170   -11.3470 cc         1 EXH      -0.058400
     30 SAU         11.2650     1.5620   -12.1600 ss         1 EXH      -0.302300
     31 CAO         11.2220     2.8440   -13.2890 cc         1 EXH       0.465300
     32 NAR         10.2350     3.6360   -13.0330 nd         1 EXH      -0.550000
     33 CAY          9.4710     3.3340   -12.0070 cd         1 EXH       0.332600
     34 CAB          8.2870     4.1690   -11.5950 c3         1 EXH      -0.021400
     35 H1          -0.3610     0.9540    -0.3650 hc         1 EXH       0.023033
     36 H2          -0.3610    -0.1610     1.0090 hc         1 EXH       0.023033
     37 H3          -0.3610    -0.7930    -0.6430 hc         1 EXH       0.023033
     38 H4           1.6800     0.0450    -2.0330 hn         1 EXH       0.196500
     39 H5           4.0070     0.5840    -0.3320 h1         1 EXH       0.063700
     40 H6           3.6400    -1.7670    -3.1030 hc         1 EXH       0.017589
     41 H7           4.0850    -3.2350    -2.2210 hc         1 EXH       0.017589
     42 H8           2.5080    -2.4810    -1.9470 hc         1 EXH       0.017589
     43 H9           6.1110    -0.9390    -0.3030 hc         1 EXH       0.017589
     44 H10          5.9790    -0.9460    -2.0670 hc         1 EXH       0.017589
     45 H11          6.0330    -2.4740    -1.1790 hc         1 EXH       0.017589
     46 H12          2.6780    -2.2130     0.3130 hc         1 EXH       0.017589
     47 H13          3.9690    -1.2900     1.0940 hc         1 EXH       0.017589
     48 H14          4.2850    -2.9270     0.5020 hc         1 EXH       0.017589
     49 H15          5.7170     2.5660    -0.8210 h1         1 EXH       0.049700
     50 H16          6.0980     0.8420    -0.5740 h1         1 EXH       0.049700
     51 H17          8.0410     0.9580    -1.9810 h1         1 EXH       0.027700
     52 H18          9.0260     2.3130    -0.6460 ho         1 EXH       0.396000
     53 H19          8.0350     2.4080    -3.8910 h1         1 EXH       0.036700
     54 H20          5.2810     2.5840    -4.1390 h1         1 EXH       0.067700
     55 H21          7.1410     2.0030    -6.0080 hn         1 EXH       0.179500
     56 H22          6.3490    -0.5330    -7.0280 h1         1 EXH       0.032700
     57 H23          7.9200    -0.7220    -6.2380 h1         1 EXH       0.032700
     58 H24          9.8930     0.3940    -7.0950 ha         1 EXH       0.110500
     59 H25         11.0130     1.3520    -9.0680 ha         1 EXH       0.118000
     60 H26          6.0990     0.8410    -9.0060 ha         1 EXH       0.110500
     61 H27          7.1990     1.8000   -10.9900 ha         1 EXH       0.118000
     62 H28         11.9240     2.9750   -14.1030 h5         1 EXH       0.026100
     63 H29          7.3720     3.6760   -11.9030 hc         1 EXH       0.016367
     64 H30          8.3490     5.1420   -12.0670 hc         1 EXH       0.016367
     65 H31          8.2870     4.2890   -10.5180 hc         1 EXH       0.016367
@<TRIPOS>BOND
     1     1     2 1   
     2     1    35 1   
     3     1    36 1   
     4     1    37 1   
     5     2     3 2   
     6     2     4 1   
     7     4     5 1   
     8     4    38 1   
     9     5     6 1   
    10     5    10 1   
    11     5    39 1   
    12     6     7 1   
    13     6     8 1   
    14     6     9 1   
    15     7    40 1   
    16     7    41 1   
    17     7    42 1   
    18     8    43 1   
    19     8    44 1   
    20     8    45 1   
    21     9    46 1   
    22     9    47 1   
    23     9    48 1   
    24    10    11 2   
    25    10    12 1   
    26    12    13 1   
    27    12    18 1   
    28    13    14 1   
    29    13    49 1   
    30    13    50 1   
    31    14    15 1   
    32    14    16 1   
    33    14    51 1   
    34    15    52 1   
    35    16    17 1   
    36    16    18 1   
    37    16    53 1   
    38    18    19 1   
    39    18    54 1   
    40    19    20 2   
    41    19    21 1   
    42    21    22 1   
    43    21    55 1   
    44    22    23 1   
    45    22    56 1   
    46    22    57 1   
    47    23    24 ar  
    48    23    26 ar  
    49    24    25 ar  
    50    24    58 1   
    51    25    28 ar  
    52    25    59 1   
    53    26    27 ar  
    54    26    60 1   
    55    27    28 ar  
    56    27    61 1   
    57    28    29 1   
    58    29    30 1   
    59    29    33 2   
    60    30    31 1   
    61    31    32 2   
    62    31    62 1   
    63    32    33 1   
    64    33    34 1   
    65    34    63 1   
    66    34    64 1   
    67    34    65 1   
@<TRIPOS>SUBSTRUCTURE
     1 EXH         1 TEMP              0 ****  ****    0 ROOT
