@<TRIPOS>MOLECULE
molecule
   65    67     1     0     0
SMALL
bcc


@<TRIPOS>ATOM
      1 CAA          0.0000     0.0000     0.0000 c3         1 EXH      -0.169100
      2 CAV          1.5070     0.0000     0.0000 c          1 EXH       0.658100
      3 OAF          2.1150     0.0000     1.0500 o          1 EXH      -0.618100
      4 N            2.1800    -0.0010    -1.1680 ns         1 EXH      -0.572900
      5 CA           3.6460    -0.0010    -1.1690 c3         1 EXH       0.061700
      6 CB           4.1550    -1.4380    -1.0430 c3         1 EXH      -0.071000
      7 CG1          3.5530    -2.2930    -2.1600 c3         1 EXH      -0.089767
      8 CAE          5.6810    -1.4500    -1.1560 c3         1 EXH      -0.089767
      9 CG2          3.7420    -2.0090     0.3160 c3         1 EXH      -0.089767
     10 C            4.1480     0.5990    -2.4560 c          1 EXH       0.691100
     11 O            3.5230     0.4390    -3.4840 o          1 EXH      -0.596100
     12 NBG          5.2900     1.3140    -2.4670 n          1 EXH      -0.477800
     13 CAQ          6.0970     1.6620    -1.2820 c3         1 EXH       0.071000
     14 CBC          7.5260     1.8990    -1.8320 c3         1 EXH       0.106100
     15 OAI          8.2670     2.7670    -0.9720 oh         1 EXH      -0.575800
     16 CBD          7.2260     2.5850    -3.1920 c3         1 EXH       0.155600
     17 FAJ          6.9990     3.9540    -3.0240 f          1 EXH      -0.214300
     18 CBF          5.9420     1.8700    -3.6620 c3         1 EXH       0.011700
     19 CAW          6.2920     0.7650    -4.6230 c          1 EXH       0.646100
     20 OAG          6.0180    -0.3850    -4.3530 o          1 EXH      -0.581100
     21 NAS          6.9110     1.0550    -5.7860 ns         1 EXH      -0.586900
     22 CAP          7.2520    -0.0200    -6.7220 c3         1 EXH       0.161300
     23 CAZ          7.9310     0.5670    -7.9330 ca         1 EXH      -0.118300
     24 CAL          9.3070     0.7060    -7.9510 ca         1 EXH      -0.111500
     25 CAN          9.9350     1.2420    -9.0570 ca         1 EXH      -0.116500
     26 CAK          7.1760     0.9570    -9.0240 ca         1 EXH      -0.111500
     27 CAM          7.7920     1.4930   -10.1370 ca         1 EXH      -0.116500
     28 CBA          9.1790     1.6420   -10.1580 ca         1 EXH       0.007000
     29 CBB          9.8450     2.2170   -11.3470 cc         1 EXH      -0.107400
     30 SAU         11.2650     1.5620   -12.1600 ss         1 EXH      -0.198300
     31 CAO         11.2220     2.8440   -13.2890 cd         1 EXH       0.441300
     32 NAR         10.2350     3.6360   -13.0330 nc         1 EXH      -0.675000
     33 CAY          9.4710     3.3340   -12.0070 cc         1 EXH       0.384600
     34 CAB          8.2870     4.1690   -11.5950 c3         1 EXH      -0.117400
     35 H1          -0.3610     0.9540    -0.3650 hc         1 EXH       0.061700
     36 H2          -0.3610    -0.1610     1.0090 hc         1 EXH       0.061700
     37 H3          -0.3610    -0.7930    -0.6430 hc         1 EXH       0.061700
     38 H4           1.6800     0.0450    -2.0330 hn         1 EXH       0.334500
     39 H5           4.0070     0.5840    -0.3320 h1         1 EXH       0.083700
     40 H6           3.6400    -1.7670    -3.1030 hc         1 EXH       0.043033
     41 H7           4.0850    -3.2350    -2.2210 hc         1 EXH       0.043033
     42 H8           2.5080    -2.4810    -1.9470 hc         1 EXH       0.043033
     43 H9           6.1110    -0.9390    -0.3030 hc         1 EXH       0.043033
     44 H10          5.9790    -0.9460    -2.0670 hc         1 EXH       0.043033
     45 H11          6.0330    -2.4740    -1.1790 hc         1 EXH       0.043033
     46 H12          2.6780    -2.2130     0.3130 hc         1 EXH       0.043033
     47 H13          3.9690    -1.2900     1.0940 hc         1 EXH       0.043033
     48 H14          4.2850    -2.9270     0.5020 hc         1 EXH       0.043033
     49 H15          5.7170     2.5660    -0.8210 h1         1 EXH       0.073700
     50 H16          6.0980     0.8420    -0.5740 h1         1 EXH       0.073700
     51 H17          8.0410     0.9580    -1.9810 h1         1 EXH       0.064700
     52 H18          9.0260     2.3130    -0.6460 ho         1 EXH       0.410000
     53 H19          8.0350     2.4080    -3.8910 h1         1 EXH       0.071700
     54 H20          5.2810     2.5840    -4.1390 h1         1 EXH       0.098700
     55 H21          7.1410     2.0030    -6.0080 hn         1 EXH       0.318500
     56 H22          6.3490    -0.5330    -7.0280 h1         1 EXH       0.062200
     57 H23          7.9200    -0.7220    -6.2380 h1         1 EXH       0.062200
     58 H24          9.8930     0.3940    -7.0950 ha         1 EXH       0.138500
     59 H25         11.0130     1.3520    -9.0680 ha         1 EXH       0.141500
     60 H26          6.0990     0.8410    -9.0060 ha         1 EXH       0.138500
     61 H27          7.1990     1.8000   -10.9900 ha         1 EXH       0.141500
     62 H28         11.9240     2.9750   -14.1030 h5         1 EXH       0.063100
     63 H29          7.3720     3.6760   -11.9030 hc         1 EXH       0.053033
     64 H30          8.3490     5.1420   -12.0670 hc         1 EXH       0.053033
     65 H31          8.2870     4.2890   -10.5180 hc         1 EXH       0.053033
@<TRIPOS>BOND
     1    32    31 2
     2    32    33 1
     3    31    30 1
     4    34    33 1
     5    33    29 2
     6    30    29 1
     7    29    28 1
     8    28    25 ar
     9    28    27 ar
    10    25    24 ar
    11    27    26 ar
    12    24    23 ar
    13    26    23 ar
    14    23    22 1
    15    22    21 1
    16    21    19 1
    17    17    16 1
    18    16    18 1
    19    16    14 1
    20    19    20 2
    21    19    18 1
    22    18    12 1
    23    14    15 1
    24    14    13 1
    25    12    13 1
    26    12    10 1
    27    11    10 2
    28    10     5 1
    29     8     6 1
    30     5     6 1
    31     5     4 1
    32     9     6 1
    33     6     7 1
    34     4     2 1
    35     2     3 2
    36     2     1 1
    37     1    35 1
    38     1    36 1
    39     1    37 1
    40     4    38 1
    41     5    39 1
    42     7    40 1
    43     7    41 1
    44     7    42 1
    45     8    43 1
    46     8    44 1
    47     8    45 1
    48     9    46 1
    49     9    47 1
    50     9    48 1
    51    13    49 1
    52    13    50 1
    53    14    51 1
    54    15    52 1
    55    16    53 1
    56    18    54 1
    57    21    55 1
    58    22    56 1
    59    22    57 1
    60    24    58 1
    61    25    59 1
    62    26    60 1
    63    27    61 1
    64    31    62 1
    65    34    63 1
    66    34    64 1
    67    34    65 1
@<TRIPOS>SUBSTRUCTURE
     1 EXH         1 TEMP              0 ****  ****    0 ROOT
