@<TRIPOS>MOLECULE
molecule
   47    48     1     0     0
SMALL
bcc


@<TRIPOS>ATOM
      1 N01          0.0000     0.0000     0.0000 nb         1 EXI      -0.721000
      2 C02          1.3240     0.0000     0.0000 ca         1 EXI       0.683200
      3 N02          2.0120     0.0020    -1.2070 nv         1 EXI      -1.084500
      4 C03          2.0330     0.0000     1.1980 ca         1 EXI      -0.263300
      5 C04          1.3340    -0.0010     2.3910 ca         1 EXI      -0.043300
      6 C05         -0.0530    -0.0010     2.3480 ca         1 EXI      -0.258300
      7 C06         -0.6920    -0.0010     1.1250 ca         1 EXI       0.437600
      8 C07          2.0640    -0.0010     3.7100 c3         1 EXI      -0.049800
      9 C08         -2.1970    -0.0020     1.0710 c3         1 EXI      -0.124700
     10 C09         -2.6790     1.1800     0.2260 c3         1 EXI      -0.026100
     11 N11         -6.2260     1.7860     1.2730 nb         1 EXI      -0.651000
     12 C12         -4.9070     1.7930     1.2760 ca         1 EXI       0.358200
     13 C13         -4.1910     1.1400     0.2900 ca         1 EXI      -0.161600
     14 C14         -4.8750     0.4700    -0.7120 ca         1 EXI      -0.176000
     15 C15         -6.2670     0.4820    -0.6850 ca         1 EXI       0.084300
     16 C16         -6.9150     1.1610     0.3400 ca         1 EXI       0.334200
     17 C17         -6.3080    -0.8910    -2.7480 c3         1 EXI       0.229100
     18 N17         -7.0020    -0.1780    -1.6730 nh         1 EXI      -0.733000
     19 C18         -8.4660    -0.1590    -1.6340 c3         1 EXI       0.235800
     20 C19         -8.9810     1.0490    -2.4180 c3         1 EXI       0.125800
     21 N20        -10.4500     1.0680    -2.3790 n7         1 EXI      -0.822200
     22 C21        -10.9810     2.2170    -3.1250 c3         1 EXI       0.148100
     23 HN02         2.2640     0.8690    -1.6380 hn         1 EXI       0.434800
     24 HN0A         2.2410    -0.8640    -1.6540 hn         1 EXI       0.434800
     25 H03          3.1160    -0.0000     1.1950 ha         1 EXI       0.143000
     26 H05         -0.6290    -0.0010     3.2660 ha         1 EXI       0.139000
     27 H07          2.2440    -1.0220     4.0230 hc         1 EXI       0.047367
     28 H07A         1.4620     0.5050     4.4560 hc         1 EXI       0.047367
     29 H07B         3.0100     0.5150     3.6000 hc         1 EXI       0.047367
     30 H08         -2.5940     0.0870     2.0750 hc         1 EXI       0.058700
     31 H08A        -2.5420    -0.9280     0.6270 hc         1 EXI       0.058700
     32 H09         -2.2820     1.0910    -0.7780 hc         1 EXI       0.063200
     33 H09A        -2.3340     2.1050     0.6690 hc         1 EXI       0.063200
     34 H12         -4.3780     2.3190     2.0610 h4         1 EXI       0.020100
     35 H14         -4.3400    -0.0140    -1.5210 ha         1 EXI       0.143000
     36 H16         -7.9980     1.1770     0.3710 h4         1 EXI       0.020100
     37 H17         -5.7070    -1.6870    -2.3240 h1         1 EXI       0.037367
     38 H17A        -7.0360    -1.3120    -3.4310 h1         1 EXI       0.037367
     39 H17B        -5.6670    -0.2010    -3.2840 h1         1 EXI       0.037367
     40 H18         -8.7990    -0.0910    -0.6050 h1         1 EXI       0.057200
     41 H18A        -8.8510    -1.0690    -2.0780 h1         1 EXI       0.057200
     42 H19         -8.5960     1.9590    -1.9740 h1         1 EXI       0.041200
     43 H19A        -8.6480     0.9800    -3.4470 h1         1 EXI       0.041200
     44 HN20       -10.7570     1.1170    -1.4280 hn         1 EXI       0.350800
     45 H21        -10.6560     2.1600    -4.1570 h1         1 EXI       0.032367
     46 H21A       -12.0640     2.2040    -3.0870 h1         1 EXI       0.032367
     47 H21B       -10.6160     3.1360    -2.6820 h1         1 EXI       0.032367
@<TRIPOS>BOND
     1     1     2 ar
     2     1     7 ar
     3     2     3 1
     4     2     4 ar
     5     4     5 ar
     6     5     6 ar
     7     5     8 1
     8     6     7 ar
     9     7     9 1
    10     9    10 1
    11    10    13 1
    12    11    12 ar
    13    11    16 ar
    14    12    13 ar
    15    13    14 ar
    16    14    15 ar
    17    15    16 ar
    18    15    18 1
    19    17    18 1
    20    18    19 1
    21    19    20 1
    22    20    21 1
    23    21    22 1
    24     3    23 1
    25     3    24 1
    26     4    25 1
    27     6    26 1
    28     8    27 1
    29     8    28 1
    30     8    29 1
    31     9    30 1
    32     9    31 1
    33    10    32 1
    34    10    33 1
    35    12    34 1
    36    14    35 1
    37    16    36 1
    38    17    37 1
    39    17    38 1
    40    17    39 1
    41    19    40 1
    42    19    41 1
    43    20    42 1
    44    20    43 1
    45    21    44 1
    46    22    45 1
    47    22    46 1
    48    22    47 1
@<TRIPOS>SUBSTRUCTURE
     1 EXI         1 TEMP              0 ****  ****    0 ROOT
