@<TRIPOS>MOLECULE
molecule
   36    38     1     0     0
SMALL
bcc


@<TRIPOS>ATOM
      1 C1           0.0000     0.0000     0.0000 c2         1 EXJ       0.484300
      2 C2           1.5160     0.0000     0.0000 c3         1 EXJ      -0.269700
      3 C3           2.1860     0.0000     1.3610 c          1 EXJ       0.616300
      4 C13         -0.9730    -0.0020     6.4210 c3         1 EXJ       0.323800
      5 C14         -1.4900     1.4350     6.5090 c3         1 EXJ      -0.277300
      6 C15         -1.6560     1.9820     5.1530 c1         1 EXJ       0.324700
      7 C16         -0.9190    -0.6030     7.8020 ca         1 EXJ      -0.095300
      8 C17         -1.9280    -1.4470     8.2270 ca         1 EXJ      -0.113000
      9 C18         -1.8780    -1.9980     9.4960 ca         1 EXJ       0.028400
     10 C19         -0.8190    -1.7060    10.3360 ca         1 EXJ      -0.113000
     11 C20          0.1880    -0.8620     9.9090 ca         1 EXJ      -0.118000
     12 C21          0.1410    -0.3150     8.6410 ca         1 EXJ      -0.111000
     13 N4           1.3850    -0.0010     2.4470 n          1 EXJ      -0.084500
     14 C5           0.0280    -0.0000     2.3330 cc         1 EXJ       0.705500
     15 N6          -0.6150     0.0060     1.1340 ne         1 EXJ      -0.647700
     16 N7           1.6770    -0.0010     3.8200 nc         1 EXJ      -0.549800
     17 C8           0.5280    -0.0020     4.4520 cd         1 EXJ       0.828900
     18 N9          -0.4670    -0.0010     3.5630 nd         1 EXJ      -0.759000
     19 C10         -0.7700     0.0010    -1.2950 c3         1 EXJ      -0.126400
     20 O11          3.3900    -0.0010     1.4680 o          1 EXJ      -0.539500
     21 N12          0.3710    -0.0020     5.8360 nu         1 EXJ      -0.866900
     22 Cl          -3.1450    -3.0580    10.0310 cl         1 EXJ      -0.102400
     23 N23         -1.7950     2.3880     4.1010 n1         1 EXJ      -0.376800
     24 H1           1.8410    -0.7750    -0.6830 hc         1 EXJ       0.108700
     25 H2           1.8410     0.9970    -0.2720 hc         1 EXJ       0.108700
     26 H3          -1.6380    -0.5870     5.7970 h1         1 EXJ       0.063700
     27 H4          -2.1040     1.5430     7.3950 hc         1 EXJ       0.153700
     28 H5          -2.0810     1.6610     5.6300 hc         1 EXJ       0.153700
     29 H6          -2.7680    -1.6570     7.5770 ha         1 EXJ       0.147000
     30 H7          -0.7800    -2.1370    11.3290 ha         1 EXJ       0.148000
     31 H8           1.0180    -0.6330    10.5670 ha         1 EXJ       0.143000
     32 H9           0.9220     0.3620     8.3150 ha         1 EXJ       0.151000
     33 H10         -0.3160     0.7010    -1.9850 hc         1 EXJ       0.069033
     34 H11         -0.7540    -0.9930    -1.7250 hc         1 EXJ       0.069033
     35 H12         -1.7950     0.2950    -1.1050 hc         1 EXJ       0.069033
     36 H13          1.1440    -0.3640     6.3590 hn         1 EXJ       0.453800
@<TRIPOS>BOND
     1    20     3 2
     2     3     2 1
     3     3    13 1
     4    23     6 3
     5     2     1 1
     6    16    13 1
     7    16    17 2
     8    12    11 ar
     9    12     7 ar
    10    13    14 1
    11     6     5 1
    12    11    10 ar
    13     4     5 1
    14     4     7 1
    15     4    21 1
    16    17    21 1
    17    17    18 1
    18     1    19 1
    19     1    15 2
    20     7     8 ar
    21    14    15 1
    22    14    18 2
    23    10     9 ar
    24     8     9 ar
    25     9    22 1
    26     2    24 1
    27     2    25 1
    28     4    26 1
    29     5    27 1
    30     5    28 1
    31     8    29 1
    32    10    30 1
    33    11    31 1
    34    12    32 1
    35    19    33 1
    36    19    34 1
    37    19    35 1
    38    21    36 1
@<TRIPOS>SUBSTRUCTURE
     1 EXJ         1 TEMP              0 ****  ****    0 ROOT
