@<TRIPOS>MOLECULE
EXJ
   36    39     1     0     0
SMALL
bcc


@<TRIPOS>ATOM
      1 C1           0.0000     0.0000     0.0000 c2         1 EXJ      -0.042000
      2 C2           1.5160     0.0000     0.0000 c3         1 EXJ      -0.148000
      3 C3           2.1860     0.0000     1.3610 c2         1 EXJ       0.243000
      4 C13         -0.9730    -0.0020     6.4210 c3         1 EXJ       0.015000
      5 C14         -1.4900     1.4350     6.5090 c3         1 EXJ      -0.177000
      6 C15         -1.6560     1.9820     5.1530 c2         1 EXJ       0.023000
      7 C16         -0.9190    -0.6030     7.8020 ca         1 EXJ      -0.101000
      8 C17         -1.9280    -1.4470     8.2270 ca         1 EXJ      -0.088000
      9 C18         -1.8780    -1.9980     9.4960 ca         1 EXJ      -0.113000
     10 C19         -0.8190    -1.7060    10.3360 ca         1 EXJ      -0.089000
     11 C20          0.1880    -0.8620     9.9090 ca         1 EXJ      -0.085000
     12 C21          0.1410    -0.3150     8.6410 ca         1 EXJ      -0.086000
     13 N4           1.3850    -0.0010     2.4470 n          1 EXJ       0.202000
     14 C5           0.0280    -0.0000     2.3330 c2         1 EXJ      -0.076000
     15 N6          -0.6150     0.0060     1.1340 n2         1 EXJ      -0.009000
     16 N7           1.6770    -0.0010     3.8200 n2         1 EXJ      -0.252000
     17 C8           0.5280    -0.0020     4.4520 c2         1 EXJ      -0.029000
     18 N9          -0.4670    -0.0010     3.5630 n2         1 EXJ      -0.159000
     19 C10         -0.7700     0.0010    -1.2950 c3         1 EXJ      -0.062000
     20 O11          3.3900    -0.0010     1.4680 o          1 EXJ      -0.295000
     21 N12          0.3710    -0.0020     5.8360 nu         1 EXJ       0.084000
     22 Cl          -3.1450    -3.0580    10.0310 cl         1 EXJ       0.061000
     23 N23         -1.7950     2.3880     4.1010 n1         1 EXJ      -0.110000
     24 H1           1.8410    -0.7750    -0.6830 hc         1 EXJ       0.109000
     25 H2           1.8410     0.9970    -0.2720 hc         1 EXJ       0.109000
     26 H3          -1.6380    -0.5870     5.7970 h1         1 EXJ       0.081000
     27 H4          -2.1040     1.5430     7.3950 hc         1 EXJ       0.152000
     28 H5          -2.0810     1.6610     5.6300 DU         1 EXJ       0.084000
     29 H6          -2.7680    -1.6570     7.5770 ha         1 EXJ       0.119000
     30 H7          -0.7800    -2.1370    11.3290 ha         1 EXJ       0.117000
     31 H8           1.0180    -0.6330    10.5670 ha         1 EXJ       0.111000
     32 H9           0.9220     0.3620     8.3150 ha         1 EXJ       0.123000
     33 H10         -0.3160     0.7010    -1.9850 hc         1 EXJ       0.063000
     34 H11         -0.7540    -0.9930    -1.7250 hc         1 EXJ       0.063000
     35 H12         -1.7950     0.2950    -1.1050 hc         1 EXJ       0.063000
     36 H13          1.1440    -0.3640     6.3590 hn         1 EXJ       0.100000
@<TRIPOS>BOND
     1     1     2 1   
     2     1    15 1   
     3     1    19 1   
     4     2     3 1   
     5     2    24 1   
     6     2    25 1   
     7     3    13 1   
     8     3    20 1   
     9     4     5 1   
    10     4     7 1   
    11     4    21 1   
    12     4    26 1   
    13     5     6 1   
    14     5    27 1   
    15     5    28 1   
    16     6    23 1   
    17     6    28 1   
    18     7     8 1   
    19     7    12 1   
    20     8     9 1   
    21     8    29 1   
    22     9    10 1   
    23     9    22 1   
    24    10    11 1   
    25    10    30 1   
    26    11    12 1   
    27    11    31 1   
    28    12    32 1   
    29    13    14 1   
    30    13    16 1   
    31    14    15 1   
    32    14    18 1   
    33    16    17 1   
    34    17    18 1   
    35    17    21 1   
    36    19    33 1   
    37    19    34 1   
    38    19    35 1   
    39    21    36 1   
@<TRIPOS>SUBSTRUCTURE
     1 EXJ         1 TEMP              0 ****  ****    0 ROOT
