@<TRIPOS>MOLECULE
molecule
   46    49     1     0     0
SMALL
bcc


@<TRIPOS>ATOM
      1 C            0.0000     0.0000     0.0000 c2         1 EXM      -0.194000
      2 C1           4.7470     0.0000     1.2430 c2         1 EXM      -0.107200
      3 O1           4.6630     0.0010    -2.2810 o          1 EXM      -0.525100
      4 C2           5.2010     0.0000     0.0000 ce         1 EXM      -0.236200
      5 O2           2.2510    -2.7510     7.5140 o          1 EXM      -0.505100
      6 C3           4.2630    -0.0860    -1.1340 c          1 EXM       0.562500
      7 C4           2.8400    -0.2790    -0.8510 cf         1 EXM      -0.238200
      8 C5           2.4040    -0.3040     0.4220 ce         1 EXM      -0.011200
      9 C6           0.9800    -0.5680     0.7080 ce         1 EXM      -0.104200
     10 C7           0.6960    -1.5190     1.8530 c3         1 EXM      -0.035200
     11 C8           1.5600    -1.1190     3.0560 c3         1 EXM      -0.058700
     12 C9           3.0430    -1.1170     2.6540 c3         1 EXM      -0.045700
     13 C10          3.3020    -0.0680     1.6010 c3         1 EXM       0.003400
     14 C11          3.9480    -0.8440     3.8530 c3         1 EXM      -0.089400
     15 C12          3.6430    -1.7830     5.0300 c3         1 EXM      -0.055400
     16 C13          2.1800    -1.5930     5.3820 c3         1 EXM      -0.179000
     17 C14          1.3610    -2.1310     4.1710 c3         1 EXM      -0.065700
     18 C15         -0.0540    -2.1730     4.7620 c3         1 EXM      -0.076400
     19 C16          0.1980    -2.7110     6.1980 c3         1 EXM      -0.193400
     20 C17          1.6490    -2.4060     6.5250 c          1 EXM       0.589100
     21 C18          1.8950    -0.1090     5.6270 c3         1 EXM      -0.083100
     22 C19          2.9070     1.2820     2.2020 c3         1 EXM      -0.084100
     23 H1          -1.0350    -0.2150     0.2380 ha         1 EXM       0.122500
     24 H2           0.2400     0.6720    -0.8150 ha         1 EXM       0.122500
     25 H2A          6.2670     0.0640    -0.1850 ha         1 EXM       0.152000
     26 H4           2.1440    -0.4430    -1.6650 ha         1 EXM       0.156000
     27 H17          0.9410    -2.5310     1.5520 hc         1 EXM       0.054700
     28 H27         -0.3510    -1.4580     2.1230 hc         1 EXM       0.054700
     29 H8           1.2720    -0.1330     3.4000 hc         1 EXM       0.068700
     30 H9           3.2930    -2.0890     2.2460 hc         1 EXM       0.060700
     31 H111         3.8050     0.1800     4.1750 hc         1 EXM       0.050200
     32 H211         4.9800    -0.9830     3.5520 hc         1 EXM       0.050200
     33 H112         3.8210    -2.8100     4.7370 hc         1 EXM       0.055200
     34 H212         4.2630    -1.5220     5.8790 hc         1 EXM       0.055200
     35 H14          1.6970    -3.1180     3.8780 hc         1 EXM       0.068700
     36 H115        -0.4850    -1.1790     4.7950 hc         1 EXM       0.052200
     37 H215        -0.6830    -2.8540     4.2020 hc         1 EXM       0.052200
     38 H116        -0.4530    -2.2060     6.9010 hc         1 EXM       0.073200
     39 H216         0.0290    -3.7800     6.2270 hc         1 EXM       0.073200
     40 H118         2.5820     0.4920     5.0440 hc         1 EXM       0.046033
     41 H218         0.8780     0.1170     5.3330 hc         1 EXM       0.046033
     42 H318         2.0250     0.1140     6.6800 hc         1 EXM       0.046033
     43 H119         3.5490     1.5050     3.0450 hc         1 EXM       0.046033
     44 H219         1.8760     1.2420     2.5340 hc         1 EXM       0.046033
     45 H319         3.0140     2.0560     1.4520 hc         1 EXM       0.046033
     46 H1A          5.4690     0.0650     2.0480 ha         1 EXM       0.133000
@<TRIPOS>BOND
     1    21    16 1
     2     5    20 2
     3    15    14 1
     4    15    16 1
     5    14    12 1
     6    16    20 1
     7    16    17 1
     8    20    19 1
     9    22    13 1
    10     2    13 1
    11     2     4 2
    12    12    13 1
    13    12    11 1
    14    19    18 1
    15    13     8 1
    16    17    11 1
    17    17    18 1
    18     4     6 1
    19    11    10 1
    20     8     9 1
    21     8     7 2
    22     6     3 2
    23     6     7 1
    24    10     9 1
    25     9     1 2
    26     1    23 1
    27     1    24 1
    28     2    46 1
    29     4    25 1
    30     7    26 1
    31    10    27 1
    32    10    28 1
    33    11    29 1
    34    12    30 1
    35    14    31 1
    36    14    32 1
    37    15    33 1
    38    15    34 1
    39    17    35 1
    40    18    36 1
    41    18    37 1
    42    19    38 1
    43    19    39 1
    44    21    40 1
    45    21    41 1
    46    21    42 1
    47    22    43 1
    48    22    44 1
    49    22    45 1
@<TRIPOS>SUBSTRUCTURE
     1 EXM         1 TEMP              0 ****  ****    0 ROOT
