@<TRIPOS>MOLECULE
EXM
   46    49     1     0     0
SMALL
bcc


@<TRIPOS>ATOM
      1 C           0.0190    0.0850   -0.0640 c2        1 EXM     -0.197000
      2 C1          4.7360    0.0770    1.2010 c2        1 EXM     -0.102200
      3 O1          4.7330   -0.5440   -2.3280 o         1 EXM     -0.530100
      4 C2          5.2030   -0.1280   -0.0350 ce        1 EXM     -0.241200
      5 O2          2.2430   -3.0200    7.4400 o         1 EXM     -0.516100
      6 C3          4.3100   -0.3990   -1.1730 c         1 EXM      0.560500
      7 C4          2.8800   -0.4910   -0.8450 ce        1 EXM     -0.240200
      8 C5          2.4030   -0.2960    0.3980 cf        1 EXM     -0.009200
      9 C6          0.9760   -0.4580    0.6980 cf        1 EXM     -0.093200
     10 C7          0.6660   -1.3070    1.8830 c3        1 EXM     -0.039200
     11 C8          1.5400   -0.9640    3.0800 c3        1 EXM     -0.044700
     12 C9          3.0270   -0.9700    2.6870 c3        1 EXM     -0.042700
     13 C10         3.2820    0.0720    1.5720 c3        1 EXM      0.007400
     14 C11         3.9590   -0.7970    3.8810 c3        1 EXM     -0.076400
     15 C12         3.6380   -1.6920    5.0690 c3        1 EXM     -0.056400
     16 C13         2.1710   -1.5890    5.4360 c3        1 EXM     -0.153000
     17 C14         1.3530   -1.9830    4.1850 c3        1 EXM     -0.065700
     18 C15        -0.0430   -2.2830    4.7190 c3        1 EXM     -0.073400
     19 C16         0.2100   -2.9240    6.0870 c3        1 EXM     -0.188400
     20 C17         1.6380   -2.5810    6.4670 c         1 EXM      0.577100
     21 C18         1.8480   -0.2030    5.9790 c3        1 EXM     -0.083100
     22 C19         2.9260    1.4960    2.0070 c3        1 EXM     -0.082100
     23 H1         -1.0480   -0.0390    0.1610 ha        1 EXM      0.121000
     24 H2          0.2480    0.6870   -0.9530 ha        1 EXM      0.121000
     25 H2A         6.2800   -0.0970   -0.2660 ha        1 EXM      0.152000
     26 H4          2.2110   -0.7480   -1.6830 ha        1 EXM      0.153000
     27 H17         0.8260   -2.3840    1.5990 hc        1 EXM      0.054200
     28 H27        -0.4120   -1.1960    2.1750 hc        1 EXM      0.054200
     29 H8          1.2520    0.0550    3.4560 hc        1 EXM      0.062700
     30 H9          3.2490   -1.9820    2.2380 hc        1 EXM      0.057700
     31 H111        3.9520    0.2720    4.2180 hc        1 EXM      0.044700
     32 H211        5.0070   -1.0360    3.5540 hc        1 EXM      0.044700
     33 H112        4.2720   -1.3920    5.9430 hc        1 EXM      0.054200
     34 H212        3.8870   -2.7570    4.8220 hc        1 EXM      0.054200
     35 H14         1.7700   -2.9630    3.8050 hc        1 EXM      0.054700
     36 H115       -0.5960   -2.9760    4.0400 hc        1 EXM      0.050200
     37 H215       -0.6440   -1.3470    4.8210 hc        1 EXM      0.050200
     38 H116        0.0890   -4.0350    6.0440 hc        1 EXM      0.076700
     39 H216       -0.4920   -2.5290    6.8620 hc        1 EXM      0.076700
     40 H118        2.1820    0.5940    5.2740 hc        1 EXM      0.044367
     41 H218        2.3730   -0.0550    6.9540 hc        1 EXM      0.044367
     42 H318        0.7480   -0.0940    6.1420 hc        1 EXM      0.044367
     43 H119        3.2340    2.2220    1.2150 hc        1 EXM      0.046367
     44 H219        3.4510    1.7600    2.9540 hc        1 EXM      0.046367
     45 H319        1.8250    1.5940    2.1620 hc        1 EXM      0.046367
     46 H1A         5.4240    0.3100    2.0310 ha        1 EXM      0.134000
@<TRIPOS>BOND
     1    1    9 2   
     2    1   23 1   
     3    1   24 1   
     4    2    4 2   
     5    2   13 1   
     6    2   46 1   
     7    3    6 2   
     8    4    6 1   
     9    4   25 1   
    10    5   20 2   
    11    6    7 1   
    12    7    8 2   
    13    7   26 1   
    14    8    9 1   
    15    8   13 1   
    16    9   10 1   
    17   10   11 1   
    18   10   27 1   
    19   10   28 1   
    20   11   12 1   
    21   11   17 1   
    22   11   29 1   
    23   12   13 1   
    24   12   14 1   
    25   12   30 1   
    26   13   22 1   
    27   14   15 1   
    28   14   31 1   
    29   14   32 1   
    30   15   16 1   
    31   15   33 1   
    32   15   34 1   
    33   16   17 1   
    34   16   20 1   
    35   16   21 1   
    36   17   18 1   
    37   17   35 1   
    38   18   19 1   
    39   18   36 1   
    40   18   37 1   
    41   19   20 1   
    42   19   38 1   
    43   19   39 1   
    44   21   40 1   
    45   21   41 1   
    46   21   42 1   
    47   22   43 1   
    48   22   44 1   
    49   22   45 1   
@<TRIPOS>SUBSTRUCTURE
     1 EXM         1 TEMP              0 ****  ****    0 ROOT
