@<TRIPOS>MOLECULE
molecule
   23    23     1     0     0
SMALL
bcc


@<TRIPOS>ATOM
      1 OBG          0.0000     0.0000     0.0000 oh         1 EXO      -0.603800
      2 CBA          1.4290     0.0000     0.0000 c3         1 EXO       0.178300
      3 CBB          1.9470     0.0000     1.4420 c3         1 EXO       0.109100
      4 OBI          1.5840     1.2260     2.0800 oh         1 EXO      -0.589800
      5 CBF          1.9370    -1.2440    -0.6930 c2         1 EXO      -0.165400
      6 CBH          1.1160    -2.0390    -1.3330 c2         1 EXO      -0.185000
      7 CBE          3.4190    -1.5460    -0.6290 c3         1 EXO      -0.058200
      8 CBD          3.8640    -1.4900     0.8350 c3         1 EXO       0.116100
      9 OBK          5.2820    -1.6490     0.9090 oh         1 EXO      -0.588800
     10 CBC          3.4700    -0.1400     1.4350 c3         1 EXO       0.140100
     11 OBJ          3.9600    -0.0550     2.7750 oh         1 EXO      -0.574800
     12 HBG         -0.3140     0.7940    -0.3990 ho         1 EXO       0.411000
     13 HBA          1.7970     0.8780    -0.5170 h1         1 EXO       0.058700
     14 HBB          1.5120    -0.8340     1.9800 h1         1 EXO       0.044700
     15 HBI          0.9900     1.0470     2.7900 ho         1 EXO       0.409000
     16 HBH1         0.0580    -1.8090    -1.3700 ha         1 EXO       0.123500
     17 HBH2         1.4950    -2.9270    -1.8240 ha         1 EXO       0.123500
     18 HBE1         3.9650    -0.8080    -1.2040 hc         1 EXO       0.062200
     19 HBE2         3.6050    -2.5360    -1.0280 hc         1 EXO       0.062200
     20 HBD          3.3780    -2.2840     1.3890 h1         1 EXO       0.031700
     21 HBK          5.4880    -2.5420     1.1290 ho         1 EXO       0.403000
     22 HBC          3.9000     0.6560     0.8390 h1         1 EXO       0.102700
     23 HBJ          3.6530    -0.7960     3.2700 ho         1 EXO       0.391000
@<TRIPOS>BOND
     1     1     2 1
     2     1    12 1
     3     2     3 1
     4     2     5 1
     5     2    13 1
     6     3     4 1
     7     3    10 1
     8     3    14 1
     9     4    15 1
    10     5     6 2
    11     5     7 1
    12     6    16 1
    13     6    17 1
    14     7     8 1
    15     7    18 1
    16     7    19 1
    17     8     9 1
    18     8    10 1
    19     8    20 1
    20     9    21 1
    21    10    11 1
    22    10    22 1
    23    11    23 1
@<TRIPOS>SUBSTRUCTURE
     1 EXO         1 TEMP              0 ****  ****    0 ROOT
