@<TRIPOS>MOLECULE
EXO
   23    23     1     0     0
SMALL
bcc


@<TRIPOS>ATOM
      1 OBG         0.0010   -0.0040   -0.2080 oh        1 EXO     -0.598800
      2 CBA         1.4170   -0.0450   -0.1090 c3        1 EXO      0.190300
      3 CBB         1.8410    0.0590    1.3700 c3        1 EXO      0.113100
      4 OBI         1.4110    1.3360    1.8130 oh        1 EXO     -0.612800
      5 CBF         1.9230   -1.3240   -0.7100 c2        1 EXO     -0.138400
      6 CBH         1.1340   -2.1840   -1.3570 c2        1 EXO     -0.175000
      7 CBE         3.3900   -1.5300   -0.5600 c3        1 EXO     -0.075200
      8 CBD         3.8210   -1.4150    0.8990 c3        1 EXO      0.109100
      9 OBK         5.2380   -1.4230    1.0210 oh        1 EXO     -0.610800
     10 CBC         3.3640   -0.0760    1.4980 c3        1 EXO      0.117100
     11 OBJ         3.6550   -0.0130    2.8850 oh        1 EXO     -0.611800
     12 HBG        -0.2800    0.7870    0.2720 ho        1 EXO      0.423000
     13 HBA         1.8500    0.8310   -0.6750 h1        1 EXO      0.054700
     14 HBB         1.3320   -0.7390    1.9780 h1        1 EXO      0.065700
     15 HBI         1.7510    1.4450    2.7120 ho        1 EXO      0.428000
     16 HBH1        1.5180   -3.1080   -1.8080 ha        1 EXO      0.125000
     17 HBH2        0.0550   -2.0090   -1.4720 ha        1 EXO      0.125000
     18 HBE1        3.6890   -2.5370   -0.9530 hc        1 EXO      0.058200
     19 HBE2        3.9390   -0.7570   -1.1640 hc        1 EXO      0.058200
     20 HBD         3.3920   -2.2630    1.5030 h1        1 EXO      0.054700
     21 HBK         5.5500   -2.2460    0.6260 ho        1 EXO      0.410000
     22 HBC         3.8790    0.7740    0.9690 h1        1 EXO      0.062700
     23 HBJ         4.6020   -0.1870    2.9760 ho        1 EXO      0.427000
@<TRIPOS>BOND
     1    1    2 1   
     2    1   12 1   
     3    2    3 1   
     4    2    5 1   
     5    2   13 1   
     6    3    4 1   
     7    3   10 1   
     8    3   14 1   
     9    4   15 1   
    10    5    6 2   
    11    5    7 1   
    12    6   16 1   
    13    6   17 1   
    14    7    8 1   
    15    7   18 1   
    16    7   19 1   
    17    8    9 1   
    18    8   10 1   
    19    8   20 1   
    20    9   21 1   
    21   10   11 1   
    22   10   22 1   
    23   11   23 1   
@<TRIPOS>SUBSTRUCTURE
     1 EXO         1 TEMP              0 ****  ****    0 ROOT
