@<TRIPOS>MOLECULE
molecule
   32    34     1     0     0
SMALL
bcc


@<TRIPOS>ATOM
      1 C2           0.0000     0.0000     0.0000 cc         1 EXP       0.693500
      2 C12         -0.6530    -0.0010     4.1580 c3         1 EXP       0.299100
      3 C13         -0.3150     1.1980     6.3290 ca         1 EXP      -0.085000
      4 C14         -0.1070     1.1980     7.6970 ca         1 EXP      -0.022900
      5 C15         -0.4220     0.0000     5.6470 ca         1 EXP      -0.118300
      6 C17         -1.0990     0.0010    -3.5480 c3         1 EXP      -0.127400
      7 C18         -0.1140    -1.1970     7.6980 ca         1 EXP      -0.130000
      8 C19         -0.0060    -0.0000     8.3810 ca         1 EXP      -0.094000
      9 C20         -0.3160    -1.1970     6.3300 ca         1 EXP      -0.098000
     10 N1           1.3620     0.0000     0.0000 n          1 EXP      -0.084500
     11 N3          -0.3890     0.0000     1.2670 nd         1 EXP      -0.742000
     12 N4           1.7680     0.0000     1.3430 nc         1 EXP      -0.564800
     13 C5           2.0690    -0.0000    -1.1490 c          1 EXP       0.615300
     14 C6           0.6760    -0.0000     2.0710 cd         1 EXP       0.848900
     15 C7           1.2860    -0.0000    -2.4490 c3         1 EXP      -0.266700
     16 N8          -0.7410    -0.0040    -1.1400 ne         1 EXP      -0.649700
     17 C9          -0.2230     0.0000    -2.3220 c2         1 EXP       0.480300
     18 N10          0.6360     0.0000     3.4630 nu         1 EXP      -0.902900
     19 O11          3.2780     0.0000    -1.1440 o          1 EXP      -0.538500
     20 H1          -1.2140     0.8830     3.8790 h1         1 EXP       0.057700
     21 H2          -1.2130    -0.8860     3.8800 h1         1 EXP       0.057700
     22 H3          -0.3950     2.1360     5.7930 ha         1 EXP       0.150000
     23 H4          -0.8880     0.8820    -4.1420 hc         1 EXP       0.068367
     24 H5          -0.8990    -0.8870    -4.1350 hc         1 EXP       0.068367
     25 H6          -2.1400     0.0080    -3.2480 hc         1 EXP       0.068367
     26 H7          -0.0330    -2.1350     8.2330 ha         1 EXP       0.140000
     27 H8           0.1550    -0.0010     9.4530 ha         1 EXP       0.146000
     28 H9          -0.4000    -2.1350     5.7950 ha         1 EXP       0.141000
     29 H10          1.5560    -0.9070    -2.9770 hc         1 EXP       0.106700
     30 H11          1.5560     0.9060    -2.9770 hc         1 EXP       0.106700
     31 H12          1.4870     0.0150     3.9880 hn         1 EXP       0.465800
     32 Br           0.0390     2.8360     8.6310 br         1 EXP      -0.090100
@<TRIPOS>BOND
     1    19    13 2
     2    15    13 1
     3    15    17 1
     4     8     7 ar
     5     8     4 ar
     6    13    10 1
     7    32     4 1
     8     6    17 1
     9     7     9 ar
    10    17    16 2
    11     4     3 ar
    12    10    12 1
    13    10     1 1
    14     9     5 ar
    15    16     1 1
    16     3     5 ar
    17    12    14 2
    18     1    11 2
    19     5     2 1
    20    11    14 1
    21    14    18 1
    22     2    18 1
    23     2    20 1
    24     2    21 1
    25     3    22 1
    26     6    23 1
    27     6    24 1
    28     6    25 1
    29     7    26 1
    30     8    27 1
    31     9    28 1
    32    15    29 1
    33    15    30 1
    34    18    31 1
@<TRIPOS>SUBSTRUCTURE
     1 EXP         1 TEMP              0 ****  ****    0 ROOT
