@<TRIPOS>MOLECULE
EXS
   43    44     1     0     0
SMALL
bcc


@<TRIPOS>ATOM
      1 C1           0.0000     0.0000     0.0000 cc         1 EXS       0.199800
      2 C2          -0.8630     0.0010    -1.2360 c3         1 EXS      -0.021700
      3 C3          -1.8330    -1.1820    -1.1810 c3         1 EXS       0.052000
      4 C14         -3.6070    -2.1370    -2.5520 c          1 EXS       0.543100
      5 C16         -4.4020    -2.1950    -3.8310 c3         1 EXS       0.133100
      6 C18         -3.4800    -2.5940    -4.9860 c3         1 EXS      -0.080000
      7 C19         -2.4480    -1.4890    -5.2190 c3         1 EXS       0.005400
      8 C20         -2.7610    -3.8980    -4.6380 c3         1 EXS       0.222400
      9 C21         -4.3110    -2.7910    -6.2550 c3         1 EXS       0.005400
     10 N4          -2.6730    -1.1810    -2.3820 ns         1 EXS      -0.225900
     11 C5           3.0770    -0.0050     3.3300 ca         1 EXS      -0.181000
     12 C6           1.9160     0.0020     4.0880 ca         1 EXS      -0.083000
     13 C7           0.6890     0.0090     3.4850 ca         1 EXS      -0.070000
     14 C8           0.5970     0.0070     2.0900 ca         1 EXS       0.091400
     15 C9           1.7700     0.0000     1.3190 ca         1 EXS      -0.300200
     16 C10          3.0120    -0.0070     1.9480 ca         1 EXS       0.159100
     17 N11          1.3600     0.0000     0.0000 na         1 EXS       0.288700
     18 N12         -0.4470     0.0040     1.2220 nd         1 EXS      -0.514100
     19 O13          4.1530    -0.0130     1.2100 oh         1 EXS      -0.498100
     20 O15         -3.8070    -2.9500    -1.6750 o          1 EXS      -0.618100
     21 O17         -5.4460    -3.1610    -3.6990 oh         1 EXS      -0.551800
     22 O22         -1.9020    -4.2700    -5.7160 oh         1 EXS      -0.598800
     23 H1          -0.2360    -0.0860    -2.1140 hc         1 EXS       0.020700
     24 H2          -1.4250     0.9270    -1.2830 hc         1 EXS       0.020700
     25 H3          -1.2710    -2.1070    -1.1340 h1         1 EXS       0.039200
     26 H4          -2.4590    -1.0940    -0.3020 h1         1 EXS       0.039200
     27 H5          -4.8330    -1.2220    -4.0320 h1         1 EXS       0.009700
     28 H6          -2.1240    -1.5090    -6.2530 hc         1 EXS       0.010700
     29 H7          -2.8930    -0.5260    -5.0000 hc         1 EXS       0.010700
     30 H8          -1.5950    -1.6490    -4.5710 hc         1 EXS       0.010700
     31 H9          -3.4920    -4.6800    -4.4710 h1         1 EXS       0.005200
     32 H10         -2.1730    -3.7570    -3.7390 h1         1 EXS       0.005200
     33 H11         -4.8900    -3.7030    -6.1690 hc         1 EXS       0.010700
     34 H12         -4.9810    -1.9490    -6.3830 hc         1 EXS       0.010700
     35 H13         -3.6520    -2.8620    -7.1110 hc         1 EXS       0.010700
     36 H14         -2.5850    -0.4440    -3.0530 hn         1 EXS       0.184500
     37 H15          4.0420    -0.0100     3.8240 ha         1 EXS       0.111000
     38 H16          1.9810     0.0030     5.1700 ha         1 EXS       0.104000
     39 H17         -0.2110     0.0150     4.0880 ha         1 EXS       0.114000
     40 H18          1.9480     0.1360    -0.7980 hn         1 EXS       0.131700
     41 H20          4.7770    -0.6010     1.6010 ho         1 EXS       0.409000
     42 H21         -6.2540    -2.7230    -3.4880 ho         1 EXS       0.391000
     43 H22         -1.5980    -5.1530    -5.5850 ho         1 EXS       0.392000
@<TRIPOS>BOND
     1     1     2 1   
     2     1    17 1   
     3     1    18 2   
     4     2     3 1   
     5     2    23 1   
     6     2    24 1   
     7     3    10 1   
     8     3    25 1   
     9     3    26 1   
    10     4     5 1   
    11     4    10 1   
    12     4    20 2   
    13     5     6 1   
    14     5    21 1   
    15     5    27 1   
    16     6     7 1   
    17     6     8 1   
    18     6     9 1   
    19     7    28 1   
    20     7    29 1   
    21     7    30 1   
    22     8    22 1   
    23     8    31 1   
    24     8    32 1   
    25     9    33 1   
    26     9    34 1   
    27     9    35 1   
    28    10    36 1   
    29    11    12 ar  
    30    11    16 ar  
    31    11    37 1   
    32    12    13 ar  
    33    12    38 1   
    34    13    14 ar  
    35    13    39 1   
    36    14    15 ar  
    37    14    18 1   
    38    15    16 ar  
    39    15    17 1   
    40    16    19 1   
    41    17    40 1   
    42    19    41 1   
    43    21    42 1   
    44    22    43 1   
@<TRIPOS>SUBSTRUCTURE
     1 EXS         1 TEMP              0 ****  ****    0 ROOT
