@<TRIPOS>MOLECULE
EXT
   35    36     1     0     0
SMALL
bcc


@<TRIPOS>ATOM
      1 CAA          0.0000     0.0000     0.0000 c3         1 EXT      -0.184000
      2 CAB         -0.7590     0.0070    -1.2660 c2         1 EXT      -0.380000
      3 PAC          4.6850     0.0020    -2.1850 p5         1 EXT       0.916500
      4 OAD          4.5960     1.3780    -3.0160 o          1 EXT      -0.764500
      5 OAE          4.4520    -1.1410    -3.0960 o          1 EXT      -0.764500
      6 OAF          6.1450    -0.1310    -1.5200 o          1 EXT      -0.764500
      7 OAG          3.5660     0.0010    -1.0270 os         1 EXT      -0.654000
      8 CAH          2.1640     0.0010    -1.2990 c3         1 EXT       0.165000
      9 CAI          1.3990     0.0000     0.0000 c2         1 EXT      -0.009000
     10 NAJ          1.4130    -0.0000     2.3490 n2         1 EXT      -0.079000
     11 CAK          2.0700     0.0000     1.2060 c2         1 EXT      -0.108000
     12 CAL          0.0970    -0.0070     2.4020 c2         1 EXT      -0.185000
     13 CAM         -0.5950    -0.0070     3.7400 c3         1 EXT      -0.042000
     14 CAN         -0.6610    -0.0000     1.2390 c2         1 EXT       0.029000
     15 OAO         -2.0160     0.0050     1.2990 oh         1 EXT      -0.181000
     16 OAP         -6.6480    -2.2600    -0.2490 o          1 EXT      -0.769500
     17 PAQ         -5.5990    -2.5850    -1.4240 p5         1 EXT       0.917500
     18 OAR         -4.7680    -3.9130    -1.0520 o          1 EXT      -0.769500
     19 OAS         -6.3290    -2.8010    -2.6940 o          1 EXT      -0.769500
     20 OAT         -4.5830    -1.3480    -1.5950 os         1 EXT      -0.631000
     21 CAU         -3.5970    -1.2860    -2.6270 c3         1 EXT       0.146000
     22 CAV         -2.8060     0.0170    -2.5000 c3         1 EXT      -0.085000
     23 NAW         -2.0520     0.0110    -1.2440 n2         1 EXT       0.061000
     24 HAB         -0.6000     0.8790    -0.6430 DU         1 EXT       0.293000
     25 HAH          1.9070     0.8860    -1.8680 h1         1 EXT       0.051000
     26 HAHA         1.9070    -0.8830    -1.8700 h1         1 EXT       0.051000
     27 HAK          3.1530     0.0030     1.2130 h4         1 EXT       0.166000
     28 HAM         -1.2970    -0.8300     3.7830 hc         1 EXT       0.030667
     29 HAMA         0.1410    -0.1180     4.5270 hc         1 EXT       0.030667
     30 HAMB        -1.1260     0.9280     3.8730 hc         1 EXT       0.030667
     31 HOAO        -2.3170     0.8650     1.5420 ho         1 EXT       0.165000
     32 HAU         -2.9220    -2.1290    -2.5320 h1         1 EXT       0.014500
     33 HAUA        -4.0830    -1.3210    -3.5940 h1         1 EXT       0.014500
     34 HAV         -2.1190     0.1050    -3.3330 h1         1 EXT       0.029000
     35 HAVA        -3.4900     0.8570    -2.5070 h1         1 EXT       0.029000
@<TRIPOS>BOND
     1     1     2 1   
     2     1     9 1   
     3     1    14 1   
     4     1    24 1   
     5     2    23 1   
     6     2    24 1   
     7     3     4 1   
     8     3     5 1   
     9     3     6 1   
    10     3     7 1   
    11     7     8 1   
    12     8     9 1   
    13     8    25 1   
    14     8    26 1   
    15     9    11 1   
    16    10    11 1   
    17    10    12 1   
    18    11    27 1   
    19    12    13 1   
    20    12    14 1   
    21    13    28 1   
    22    13    29 1   
    23    13    30 1   
    24    14    15 1   
    25    15    31 1   
    26    16    17 1   
    27    17    18 1   
    28    17    19 1   
    29    17    20 1   
    30    20    21 1   
    31    21    22 1   
    32    21    32 1   
    33    21    33 1   
    34    22    23 1   
    35    22    34 1   
    36    22    35 1   
@<TRIPOS>SUBSTRUCTURE
     1 EXT         1 TEMP              0 ****  ****    0 ROOT
