@<TRIPOS>MOLECULE
molecule
   35    35     1     0     0
SMALL
bcc


@<TRIPOS>ATOM
      1 CAA          0.0000     0.0000     0.0000 ca         1 EXT      -0.124900
      2 CAB         -0.7590     0.0070    -1.2660 ce         1 EXT       0.410800
      3 PAC          4.6850     0.0020    -2.1850 p5         1 EXT       1.196900
      4 OAD          4.5960     1.3780    -3.0160 o          1 EXT      -0.918500
      5 OAE          4.4520    -1.1410    -3.0960 o          1 EXT      -0.918500
      6 OAF          6.1450    -0.1310    -1.5200 o          1 EXT      -0.918500
      7 OAG          3.5660     0.0010    -1.0270 os         1 EXT      -0.590200
      8 CAH          2.1640     0.0010    -1.2990 c3         1 EXT       0.252700
      9 CAI          1.3990     0.0000     0.0000 ca         1 EXT      -0.151600
     10 NAJ          1.4130    -0.0000     2.3490 nb         1 EXT      -0.727000
     11 CAK          2.0700     0.0000     1.2060 ca         1 EXT       0.412200
     12 CAL          0.0970    -0.0070     2.4020 ca         1 EXT       0.324600
     13 CAM         -0.5950    -0.0070     3.7400 c3         1 EXT      -0.123400
     14 CAN         -0.6610    -0.0000     1.2390 ca         1 EXT       0.017800
     15 OAO         -2.0160     0.0050     1.2990 oh         1 EXT      -0.455100
     16 OAP         -6.6480    -2.2600    -0.2490 o          1 EXT      -0.925500
     17 PAQ         -5.5990    -2.5850    -1.4240 p5         1 EXT       1.206900
     18 OAR         -4.7680    -3.9130    -1.0520 o          1 EXT      -0.925500
     19 OAS         -6.3290    -2.8010    -2.6940 o          1 EXT      -0.925500
     20 OAT         -4.5830    -1.3480    -1.5950 os         1 EXT      -0.571200
     21 CAU         -3.5970    -1.2860    -2.6270 c3         1 EXT       0.232400
     22 CAV         -2.8060     0.0170    -2.5000 c3         1 EXT       0.093800
     23 NAW         -2.0520     0.0110    -1.2440 n2         1 EXT      -0.521900
     24 HAB         -0.2330     0.0070    -2.2130 h4         1 EXT      -0.019200
     25 HAH          1.9070    -0.8830    -1.8700 h1         1 EXT       0.036700
     26 HAHA         1.9070     0.8860    -1.8680 h1         1 EXT       0.036700
     27 HAK          3.1530     0.0030     1.2130 h4         1 EXT       0.063100
     28 HAM          0.1410    -0.1210     4.5270 hc         1 EXT       0.029033
     29 HAMA        -1.2990    -0.8290     3.7820 hc         1 EXT       0.029033
     30 HAMB        -1.1240     0.9290     3.8740 hc         1 EXT       0.029033
     31 HOAO        -2.3170     0.8640     1.5450 ho         1 EXT       0.393000
     32 HAU         -4.0830    -1.3210    -3.5940 h1         1 EXT       0.012200
     33 HAUA        -2.9220    -2.1290    -2.5320 h1         1 EXT       0.012200
     34 HAV         -3.4900     0.8570    -2.5070 h1         1 EXT       0.014700
     35 HAVA        -2.1190     0.1050    -3.3330 h1         1 EXT       0.014700
@<TRIPOS>BOND
     1     9     1 ar
     2     2     1 1
     3     1    14 ar
     4    23     2 2
     5     2    24 1
     6     5     3 1
     7     3     4 1
     8     3     6 1
     9     3     7 1
    10     7     8 1
    11     8     9 1
    12     8    25 1
    13     8    26 1
    14     9    11 ar
    15    11    10 ar
    16    10    12 ar
    17    11    27 1
    18    14    12 ar
    19    12    13 1
    20    13    28 1
    21    13    29 1
    22    13    30 1
    23    14    15 1
    24    15    31 1
    25    17    16 1
    26    20    17 1
    27    19    17 1
    28    17    18 1
    29    20    21 1
    30    21    22 1
    31    21    32 1
    32    21    33 1
    33    22    23 1
    34    22    34 1
    35    22    35 1
@<TRIPOS>SUBSTRUCTURE
     1 EXT         1 TEMP              0 ****  ****    0 ROOT
