@<TRIPOS>MOLECULE
molecule
   41    44     1     0     0
SMALL
bcc


@<TRIPOS>ATOM
      1 C1           0.0000     0.0000     0.0000 ca         1 EXV      -0.099600
      2 C2           1.3950     0.0000     0.0000 ca         1 EXV      -0.091000
      3 C3           2.0820     0.0000     1.1960 ca         1 EXV      -0.162000
      4 O1          -1.9580    -0.0070    -1.2740 o          1 EXV      -0.837800
      5 O2          -5.0960     3.6740     6.0270 oh         1 EXV      -0.524100
      6 C11         -0.3060     1.2030     4.5780 c3         1 EXV      -0.075000
      7 C12         -1.3040     2.3240     4.4410 cc         1 EXV       0.446800
      8 C13         -2.2530     4.1610     3.7690 ca         1 EXV       0.114400
      9 C14         -2.6250     5.3640     3.1610 ca         1 EXV      -0.073000
     10 C15         -3.7960     5.9730     3.5130 ca         1 EXV      -0.140000
     11 C16         -4.6260     5.4100     4.4730 ca         1 EXV      -0.165000
     12 C17         -4.2790     4.2210     5.0880 ca         1 EXV       0.101100
     13 C18         -3.0920     3.5850     4.7340 ca         1 EXV      -0.114200
     14 C           -0.7420    -0.0070    -1.2780 c          1 EXV       0.883200
     15 O           -0.0720    -0.0140    -2.4460 o          1 EXV      -0.837800
     16 C6          -0.6920     0.0010     1.2130 ca         1 EXV      -0.087000
     17 C5           0.0070     0.0000     2.4020 ca         1 EXV      -0.117300
     18 C4           1.3910     0.0010     2.3950 ca         1 EXV      -0.151000
     19 C7          -0.7370     0.0010     3.7130 c3         1 EXV      -0.006400
     20 C10         -0.2680     0.7060     6.0330 c3         1 EXV      -0.089400
     21 C9          -0.6780    -0.7810     6.0010 c3         1 EXV      -0.092400
     22 C8          -0.3470    -1.2360     4.5580 c3         1 EXV      -0.077400
     23 N1          -2.4620     2.4260     5.1460 na         1 EXV      -0.257300
     24 N           -1.1810     3.3370     3.6350 nd         1 EXV      -0.586100
     25 H1           1.9380    -0.0000    -0.9380 ha         1 EXV       0.153000
     26 H2           3.1660     0.0000     1.1970 ha         1 EXV       0.104000
     27 H3          -5.0700     4.1980     6.8100 ho         1 EXV       0.407000
     28 H4           0.6790     1.5390     4.2780 hc         1 EXV       0.100700
     29 H5          -1.9860     5.8130     2.4110 ha         1 EXV       0.146000
     30 H6          -4.0800     6.9040     3.0390 ha         1 EXV       0.128000
     31 H7          -5.5520     5.9050     4.7410 ha         1 EXV       0.130000
     32 H9          -1.7750     0.0000     1.2210 ha         1 EXV       0.147000
     33 H10          1.9360     0.0000     3.3310 ha         1 EXV       0.098000
     34 H11         -1.8070     0.0220     3.5470 hc         1 EXV       0.066700
     35 H12          0.7350     0.8040     6.4320 hc         1 EXV       0.037200
     36 H13         -0.9700     1.2700     6.6360 hc         1 EXV       0.037200
     37 H14         -1.7380    -0.8850     6.1960 hc         1 EXV       0.037200
     38 H15         -0.0970    -1.3490     6.7180 hc         1 EXV       0.037200
     39 H16          0.7100    -1.4500     4.4580 hc         1 EXV       0.053700
     40 H17         -0.9480    -2.0930     4.2800 hc         1 EXV       0.053700
     41 H18         -2.7280     1.8560     5.9250 hn         1 EXV       0.303700
@<TRIPOS>BOND
     1     4    14 1
     2    15    14 1
     3    14     1 1
     4     1     2 ar
     5     1    16 ar
     6     2     3 ar
     7    16    17 ar
     8     9    10 ar
     9     9     8 ar
    10    10    11 ar
    11     3    18 ar
    12    17    18 ar
    13    17    19 1
    14     8    24 1
    15     8    13 ar
    16    11    12 ar
    17    24     7 2
    18    19    22 1
    19    19     6 1
    20    13    12 ar
    21    13    23 1
    22    12     5 1
    23     7    23 1
    24     7     6 1
    25    22    21 1
    26     6    20 1
    27    21    20 1
    28     2    25 1
    29     3    26 1
    30     5    27 1
    31     6    28 1
    32     9    29 1
    33    10    30 1
    34    11    31 1
    35    16    32 1
    36    18    33 1
    37    19    34 1
    38    20    35 1
    39    20    36 1
    40    21    37 1
    41    21    38 1
    42    22    39 1
    43    22    40 1
    44    23    41 1
@<TRIPOS>SUBSTRUCTURE
     1 EXV         1 TEMP              0 ****  ****    0 ROOT
