@<TRIPOS>MOLECULE
molecule
   52    53     1     0     0
SMALL
bcc


@<TRIPOS>ATOM
      1 CAA          0.0000     0.0000     0.0000 c3         1 EXW      -0.112200
      2 CAB          1.5320     0.0000     0.0000 c3         1 EXW      -0.066400
      3 CAC          2.0460     0.0000     1.4300 c3         1 EXW      -0.055700
      4 CAD          1.8980    -1.3710     2.0960 c3         1 EXW      -0.057000
      5 CAE          3.2930    -1.7910     2.6010 c3         1 EXW      -0.075400
      6 CAF          4.1680    -0.5300     2.5530 c3         1 EXW      -0.076400
      7 CAG          3.5180     0.4100     1.5250 c3         1 EXW      -0.025500
      8 CAH          4.2250     0.2640     0.2070 c2         1 EXW      -0.116400
      9 CAI          0.9580    -1.2460     3.2960 c3         1 EXW      -0.083100
     10 CAJ          1.3970    -2.4080     1.0950 c3         1 EXW      -0.079200
     11 CAK          0.5880    -3.4800     1.7730 c2         1 EXW       0.113300
     12 CAM         -0.6780    -3.6750     1.4710 c2         1 EXW      -0.188400
     13 CAN         -1.4240    -4.7740     2.2020 c3         1 EXW      -0.045900
     14 CAO         -1.4110    -2.8560     0.4370 c3         1 EXW      -0.105200
     15 CAP         -0.6930    -2.9060    -0.9060 c3         1 EXW       0.039800
     16 CAQ         -0.8190    -1.6400    -1.6910 c2         1 EXW      -0.456200
     17 CAR         -0.5320    -0.4220    -1.3390 c2         1 EXW      -0.062400
     18 CAS         -0.7530     0.6750    -2.3730 c3         1 EXW      -0.040900
     19 CAT          4.3070    -1.0850    -0.4580 c3         1 EXW      -0.061900
     20 CAU          4.7720     1.3100    -0.3620 c2         1 EXW      -0.229000
     21 FAL          1.1850    -4.2630     2.7060 f          1 EXW      -0.170500
     22 H1          -0.3570    -0.6870     0.7580 hc         1 EXW       0.047700
     23 H2          -0.3560     0.9980     0.2270 hc         1 EXW       0.047700
     24 H3           1.8920    -0.8840    -0.5120 hc         1 EXW       0.057700
     25 H4           1.8920     0.8840    -0.5120 hc         1 EXW       0.057700
     26 H5           1.4630     0.7130     2.0000 hc         1 EXW       0.052700
     27 H7           3.2250    -2.1560     3.6190 hc         1 EXW       0.049700
     28 H8           3.7080    -2.5540     1.9530 hc         1 EXW       0.049700
     29 H9           4.1890    -0.0570     3.5270 hc         1 EXW       0.047700
     30 H10          5.1720    -0.7870     2.2370 hc         1 EXW       0.047700
     31 H11          3.5890     1.4340     1.8730 hc         1 EXW       0.056700
     32 H14          1.2640    -0.4060     3.9090 hc         1 EXW       0.038700
     33 H15          0.9980    -2.1550     3.8830 hc         1 EXW       0.038700
     34 H16         -0.0550    -1.0870     2.9460 hc         1 EXW       0.038700
     35 H17          2.2470    -2.8650     0.6020 hc         1 EXW       0.075700
     36 H18          0.7800    -1.9160     0.3540 hc         1 EXW       0.075700
     37 H21         -2.4490    -4.8080     1.8530 hc         1 EXW       0.047033
     38 H22         -0.9450    -5.7260     2.0080 hc         1 EXW       0.047033
     39 H23         -1.4110    -4.5730     3.2660 hc         1 EXW       0.047033
     40 H24         -2.4140    -3.2460     0.3200 hc         1 EXW       0.065200
     41 H25         -1.4670    -1.8270     0.7730 hc         1 EXW       0.065200
     42 H26         -1.1070    -3.7190    -1.4900 hc         1 EXW       0.081700
     43 H27          0.3580    -3.1030    -0.7310 hc         1 EXW       0.081700
     44 H28         -1.1220    -1.7480    -0.6560 ha         1 EXW       0.244000
     45 H31         -0.8490     1.6300    -1.8710 hc         1 EXW       0.043367
     46 H32         -1.6570     0.4670    -2.9310 hc         1 EXW       0.043367
     47 H33          0.0910     0.7070    -3.0510 hc         1 EXW       0.043367
     48 H34          5.3450    -1.3340    -0.6440 hc         1 EXW       0.044367
     49 H35          3.8670    -1.8340     0.1890 hc         1 EXW       0.044367
     50 H36          3.7680    -1.0580    -1.3970 hc         1 EXW       0.044367
     51 H37          5.2830     1.2040    -1.3120 ha         1 EXW       0.113500
     52 H38          4.7140     2.2800     0.1170 ha         1 EXW       0.113500
@<TRIPOS>BOND
     1     1     2 1
     2     1    17 1
     3     2     3 1
     4     3     4 1
     5     4     5 1
     6     4     9 1
     7     4    10 1
     8     5     6 1
     9     6     7 1
    10     7     8 1
    11     8    19 1
    12     8    20 2
    13    10    11 1
    14    11    12 2
    15    11    21 1
    16    12    13 1
    17    12    14 1
    18    14    15 1
    19    15    16 1
    20    16    17 2
    21    17    18 1
    22     1    22 1
    23     1    23 1
    24     2    24 1
    25     2    25 1
    26     3    26 1
    27     5    27 1
    28     5    28 1
    29     6    29 1
    30     6    30 1
    31     7    31 1
    32     9    32 1
    33     9    33 1
    34     9    34 1
    35    10    35 1
    36    10    36 1
    37    13    37 1
    38    13    38 1
    39    13    39 1
    40    14    40 1
    41    14    41 1
    42    15    42 1
    43    15    43 1
    44    16    44 1
    45    18    45 1
    46    18    46 1
    47    18    47 1
    48    19    48 1
    49    19    49 1
    50    19    50 1
    51    20    51 1
    52    20    52 1
    53     3     7 1
@<TRIPOS>SUBSTRUCTURE
     1 EXW         1 TEMP              0 ****  ****    0 ROOT
