@<TRIPOS>MOLECULE
EXX
   31    33     1     0     0
SMALL
bcc


@<TRIPOS>ATOM
      1 BRE         0.1410    0.4600   -1.1350 br        1 EXX     -0.019100
      2 CAN         1.9260    0.1470   -0.7020 ca        1 EXX      0.056100
      3 CAL         2.3040   -0.2980    0.5660 ca        1 EXX     -0.017900
      4 BRC         0.9860   -0.6070    1.8550 br        1 EXX     -0.032100
      5 CAM         3.6590   -0.5100    0.8920 ca        1 EXX      0.020100
      6 BRD         4.0980   -1.0810    2.6200 br        1 EXX     -0.032100
      7 CAO         4.6840   -0.3020   -0.0370 ca        1 EXX     -0.008900
      8 BRF         6.4650   -0.5310    0.4790 br        1 EXX     -0.056100
      9 CAQ         4.3270    0.1060   -1.3280 ca        1 EXX     -0.035200
     10 CAP         2.9270    0.3590   -1.6570 ca        1 EXX      0.093400
     11 NAJ         2.8280    0.8160   -2.9860 nc        1 EXX     -0.557100
     12 CAG         4.0850    0.8330   -3.4480 cd        1 EXX      0.447700
     13 NAU         5.0400    0.3960   -2.5000 na        1 EXX     -0.190300
     14 CAT         6.4650    0.2750   -2.7570 c3        1 EXX      0.255800
     15 OAK         6.7670    0.8580   -4.0310 os        1 EXX     -0.385600
     16 CAI         7.0030   -1.1750   -2.7860 c3        1 EXX     -0.155400
     17 CAR         7.3590   -1.4600   -4.2490 c3        1 EXX      0.117100
     18 OAB         8.7380   -1.7290   -4.4240 oh        1 EXX     -0.586800
     19 CAS         7.0600   -0.1490   -5.0070 c3        1 EXX      0.132100
     20 CAH         5.8910   -0.3490   -5.9720 c3        1 EXX      0.104400
     21 OAA         5.5120    0.9270   -6.4540 oh        1 EXX     -0.588800
     22 H1          4.4000    1.1730   -4.4510 h5        1 EXX      0.108800
     23 H2          7.0120    0.9170   -2.0020 h2        1 EXX      0.107700
     24 H3          7.9200   -1.2310   -2.1460 hc        1 EXX      0.082200
     25 H4          6.2610   -1.9150   -2.4020 hc        1 EXX      0.082200
     26 H5          6.7550   -2.3170   -4.6530 h1        1 EXX      0.054700
     27 H6          8.9310   -2.5380   -3.9340 ho        1 EXX      0.410000
     28 H7          7.9630    0.2380   -5.5550 h1        1 EXX      0.115700
     29 H8          5.0180   -0.8250   -5.4490 h1        1 EXX      0.035700
     30 H9          6.2260   -1.0120   -6.8140 h1        1 EXX      0.035700
     31 H10         4.9120    0.7760   -7.1940 ho        1 EXX      0.409000
@<TRIPOS>BOND
     1    1    2 1   
     2    2    3 ar  
     3    2   10 ar  
     4    3    4 1   
     5    3    5 ar  
     6    5    6 1   
     7    5    7 ar  
     8    7    8 1   
     9    7    9 ar  
    10    9   10 ar  
    11    9   13 1   
    12   10   11 1   
    13   11   12 2   
    14   12   13 1   
    15   12   22 1   
    16   13   14 1   
    17   14   15 1   
    18   14   16 1   
    19   14   23 1   
    20   15   19 1   
    21   16   17 1   
    22   16   24 1   
    23   16   25 1   
    24   17   18 1   
    25   17   19 1   
    26   17   26 1   
    27   18   27 1   
    28   19   20 1   
    29   19   28 1   
    30   20   21 1   
    31   20   29 1   
    32   20   30 1   
    33   21   31 1   
@<TRIPOS>SUBSTRUCTURE
     1 EXX         1 TEMP              0 ****  ****    0 ROOT
