@<TRIPOS>MOLECULE
molecule
   31    33     1     0     0
SMALL
bcc


@<TRIPOS>ATOM
      1 BrE          0.0000     0.0000     0.0000 br         1 EXX      -0.032100
      2 CAN          1.8910     0.0000     0.0000 ca         1 EXX       0.066100
      3 CAL          2.5820     0.0000     1.1920 ca         1 EXX      -0.004900
      4 BrC          1.6330     0.0060     2.8270 br         1 EXX      -0.035100
      5 CAM          3.9710    -0.0060     1.2010 ca         1 EXX       0.025100
      6 BrD          4.9000    -0.0080     2.8480 br         1 EXX      -0.034100
      7 CAO          4.6780    -0.0120     0.0150 ca         1 EXX       0.010100
      8 BrF          6.5680    -0.0220     0.0400 br         1 EXX      -0.063100
      9 CAQ          3.9970    -0.0110    -1.1950 ca         1 EXX      -0.065200
     10 CAP          2.5930    -0.0050    -1.2100 ca         1 EXX       0.123400
     11 NAJ          2.2100    -0.0100    -2.5130 nc         1 EXX      -0.592100
     12 CAG          3.2630    -0.0130    -3.2780 cd         1 EXX       0.470700
     13 NAU          4.3910    -0.0160    -2.5190 na         1 EXX      -0.146300
     14 CAT          5.7710    -0.0230    -3.0130 c3         1 EXX       0.243800
     15 OAK          5.8270     0.5140    -4.3530 os         1 EXX      -0.401600
     16 CAI          6.2860    -1.4730    -3.1480 c3         1 EXX      -0.153400
     17 CAR          7.1560    -1.4460    -4.4240 c3         1 EXX       0.114100
     18 OAB          8.5090    -1.7870    -4.1150 oh         1 EXX      -0.593800
     19 CAS          7.0640     0.0180    -4.9110 c3         1 EXX       0.138100
     20 CAH          7.0170     0.0710    -6.4380 c3         1 EXX       0.148400
     21 OAA          6.9750     1.4330    -6.8680 oh         1 EXX      -0.595800
     22 H1           3.2430    -0.0120    -4.3610 h5         1 EXX       0.093800
     23 H2           6.4170     0.5450    -2.3540 h2         1 EXX       0.100700
     24 H3           5.4560    -2.1590    -3.2710 hc         1 EXX       0.080200
     25 H4           6.8860    -1.7430    -2.2870 hc         1 EXX       0.080200
     26 H5           6.7510    -2.1180    -5.1710 h1         1 EXX       0.049700
     27 H6           8.6810    -2.6730    -4.3880 ho         1 EXX       0.411000
     28 H7           7.9010     0.5920    -4.5340 h1         1 EXX       0.087700
     29 H8           6.1330    -0.4460    -6.7910 h1         1 EXX       0.032700
     30 H9           7.9010    -0.4080    -6.8430 h1         1 EXX       0.032700
     31 H10          7.0190     1.4670    -7.8090 ho         1 EXX       0.407000
@<TRIPOS>BOND
     1     6     5 1
     2     8     7 1
     3     5     7 ar
     4     5     3 ar
     5     4     3 1
     6     7     9 ar
     7     3     2 ar
     8     9    13 1
     9     9    10 ar
    10    18    17 1
    11    14    13 1
    12    14    15 1
    13    14    16 1
    14     2    10 ar
    15     2     1 1
    16    13    12 1
    17    15    19 1
    18    10    11 1
    19    16    17 1
    20    17    19 1
    21    19    20 1
    22    12    11 2
    23    20    21 1
    24    12    22 1
    25    14    23 1
    26    16    24 1
    27    16    25 1
    28    17    26 1
    29    18    27 1
    30    19    28 1
    31    20    29 1
    32    20    30 1
    33    21    31 1
@<TRIPOS>SUBSTRUCTURE
     1 EXX         1 TEMP              0 ****  ****    0 ROOT
