@<TRIPOS>MOLECULE
molecule
   56    59     1     0     0
SMALL
bcc


@<TRIPOS>ATOM
      1 C10          0.0000     0.0000     0.0000 c3         1 EY4      -0.039000
      2 C11          0.0110    -1.1740    -2.2090 c          1 EY4       0.579100
      3 C12         -0.5950    -1.5000    -3.5680 c3         1 EY4      -0.167400
      4 C13         -2.1020    -1.5180    -3.3770 c3         1 EY4      -0.053000
      5 C14         -2.5280    -0.1210    -2.8450 c3         1 EY4      -0.068700
      6 C15         -4.0500    -0.1660    -3.0330 c3         1 EY4      -0.074400
      7 C1           1.5300     0.0000     0.0000 c3         1 EY4      -0.083400
      8 C16         -4.2130    -0.8460    -4.4180 c3         1 EY4      -0.076400
      9 C17         -2.9270    -1.6760    -4.6520 c3         1 EY4      -0.163700
     10 C18         -2.4860    -2.6050    -2.3720 c3         1 EY4      -0.095100
     11 C19         -0.5130    -1.2470     0.7210 c3         1 EY4      -0.097100
     12 C2           2.0390     0.0000     1.4430 c3         1 EY4      -0.088400
     13 C20         -3.2750    -3.1260    -4.8720 c          1 EY4       0.575100
     14 C21         -2.3180    -4.0270    -5.6110 c3         1 EY4      -0.195100
     15 C3           1.5300     1.2510     2.1620 c3         1 EY4       0.145100
     16 C4          -0.0010     1.2550     2.1600 c3         1 EY4      -0.083400
     17 C5          -0.5080     1.2550     0.7160 c3         1 EY4      -0.054700
     18 C6          -2.0360     1.2790     0.7110 c3         1 EY4      -0.080400
     19 C7          -2.5550     1.2490    -0.7300 c3         1 EY4      -0.071400
     20 C8          -2.0540    -0.0220    -1.4110 c3         1 EY4      -0.059700
     21 C9          -0.5160     0.0080    -1.4360 c3         1 EY4      -0.154700
     22 O11          0.9030    -1.8520    -1.7570 o          1 EY4      -0.526100
     23 O20         -4.3190    -3.5660    -4.4560 o          1 EY4      -0.528100
     24 O3           2.0100     2.4160     1.4890 oh         1 EY4      -0.605800
     25 H1          -0.3220    -0.7370    -4.2870 hc         1 EY4       0.068200
     26 H2          -0.2530    -2.4720    -3.9020 hc         1 EY4       0.068200
     27 H3          -2.0910     0.6650    -3.4490 hc         1 EY4       0.059700
     28 H4          -4.4620     0.8360    -3.0500 hc         1 EY4       0.051200
     29 H5          -4.5130    -0.7640    -2.2580 hc         1 EY4       0.051200
     30 H6           1.8900    -0.8860    -0.5090 hc         1 EY4       0.067200
     31 H7           1.8900     0.8860    -0.5090 hc         1 EY4       0.067200
     32 H8          -4.3130    -0.0940    -5.1910 hc         1 EY4       0.058200
     33 H9          -5.0780    -1.4980    -4.4120 hc         1 EY4       0.058200
     34 H10         -2.3800    -1.2840    -5.5010 hc         1 EY4       0.065700
     35 H11         -2.3990    -3.5780    -2.8410 hc         1 EY4       0.047033
     36 H12         -3.5080    -2.4510    -2.0470 hc         1 EY4       0.047033
     37 H13         -1.8240    -2.5560    -1.5160 hc         1 EY4       0.047033
     38 H14         -0.1780    -2.1330     0.1940 hc         1 EY4       0.040700
     39 H15         -1.5950    -1.2310     0.7470 hc         1 EY4       0.040700
     40 H16         -0.1280    -1.2630     1.7340 hc         1 EY4       0.040700
     41 H17          3.1220     0.0010     1.4430 hc         1 EY4       0.046700
     42 H18          1.6730    -0.8830     1.9540 hc         1 EY4       0.046700
     43 H19         -1.6020    -3.4240    -6.1550 hc         1 EY4       0.061033
     44 H20         -1.7950    -4.6570    -4.9020 hc         1 EY4       0.061033
     45 H21         -2.8710    -4.6470    -6.3060 hc         1 EY4       0.061033
     46 H22          1.8870     1.2470     3.1850 h1         1 EY4       0.025700
     47 H23         -0.3640     0.3710     2.6690 hc         1 EY4       0.046700
     48 H24         -0.3580     2.1430     2.6680 hc         1 EY4       0.046700
     49 H25         -0.1350     2.1350     0.2050 hc         1 EY4       0.068700
     50 H26         -2.3820     2.1840     1.1970 hc         1 EY4       0.042700
     51 H27         -2.4100     0.4130     1.2440 hc         1 EY4       0.042700
     52 H28         -3.6390     1.2530    -0.7240 hc         1 EY4       0.044200
     53 H29         -2.1870     2.1160    -1.2650 hc         1 EY4       0.044200
     54 H30         -2.3910    -0.8890    -0.8560 hc         1 EY4       0.071700
     55 H31         -0.1890     0.9190    -1.9220 hc         1 EY4       0.077700
     56 H32          2.5510     2.9180     2.0770 ho         1 EY4       0.397000
@<TRIPOS>BOND
     1    12    15 1
     2    12     7 1
     3    15    16 1
     4    15    24 1
     5    16    17 1
     6     7     1 1
     7    11     1 1
     8    17     1 1
     9    17    18 1
    10     1    21 1
    11    18    19 1
    12    22     2 2
    13    21     2 1
    14    21    20 1
    15     2     3 1
    16    19    20 1
    17    20     5 1
    18    10     4 1
    19     3     4 1
    20     5     4 1
    21     5     6 1
    22     4     9 1
    23     6     8 1
    24     9     8 1
    25     9    13 1
    26    13    23 2
    27    13    14 1
    28     3    25 1
    29     3    26 1
    30     5    27 1
    31     6    28 1
    32     6    29 1
    33     7    30 1
    34     7    31 1
    35     8    32 1
    36     8    33 1
    37     9    34 1
    38    10    35 1
    39    10    36 1
    40    10    37 1
    41    11    38 1
    42    11    39 1
    43    11    40 1
    44    12    41 1
    45    12    42 1
    46    14    43 1
    47    14    44 1
    48    14    45 1
    49    15    46 1
    50    16    47 1
    51    16    48 1
    52    17    49 1
    53    18    50 1
    54    18    51 1
    55    19    52 1
    56    19    53 1
    57    20    54 1
    58    21    55 1
    59    24    56 1
@<TRIPOS>SUBSTRUCTURE
     1 EY4         1 TEMP              0 ****  ****    0 ROOT
