@<TRIPOS>MOLECULE
molecule
   28    29     1     0     0
SMALL
bcc


@<TRIPOS>ATOM
      1 O1           0.0000     0.0000     0.0000 o          1 EY7      -0.851800
      2 O2           1.9460     0.0010    -1.0460 o          1 EY7      -0.851800
      3 C3           3.6000     0.0000     1.0250 c3         1 EY7      -0.115700
      4 C5           1.3420     0.0000     0.0000 c          1 EY7       0.894600
      5 C7           5.7060     2.3480     4.6780 ca         1 EY7      -0.143300
      6 C8           6.3820     2.3210     5.8590 ca         1 EY7      -0.150000
      7 C9           6.7250     1.1120     6.4610 ca         1 EY7      -0.130000
      8 C4           2.0950     0.0000     1.3050 c3         1 EY7      -0.177400
      9 C2           4.3530     0.0000     2.3300 ca         1 EY7       0.353300
     10 N            4.6780     1.1390     2.8930 nb         1 EY7      -0.635000
     11 C6           5.3470     1.1420     4.0530 ca         1 EY7       0.274300
     12 C11          5.7000    -0.0870     4.6620 ca         1 EY7       0.327300
     13 C10          6.3930    -0.0750     5.8850 ca         1 EY7      -0.173300
     14 N1           5.3600    -1.2400     4.0730 nb         1 EY7      -0.763000
     15 C1           4.7020    -1.2200     2.9320 ca         1 EY7       0.550300
     16 O            4.3560    -2.3870     2.3340 os         1 EY7      -0.411100
     17 C            4.7390    -3.5930     2.9970 c3         1 EY7       0.135700
     18 H2           3.8620    -0.8840     0.4570 hc         1 EY7       0.073700
     19 H3           3.8610     0.8850     0.4570 hc         1 EY7       0.073700
     20 H6           7.2630     1.1170     7.4020 ha         1 EY7       0.120000
     21 H7           1.8340    -0.8850     1.8730 hc         1 EY7       0.036700
     22 H8           1.8340     0.8840     1.8730 hc         1 EY7       0.036700
     23 H9           6.6660    -1.0070     6.3640 ha         1 EY7       0.136000
     24 H10          4.3050    -3.6140     3.9890 h1         1 EY7       0.041367
     25 H11          5.8190    -3.6350     3.0740 h1         1 EY7       0.041367
     26 H12          4.3850    -4.4450     2.4300 h1         1 EY7       0.041367
     27 H4           5.4460     3.2950     4.2210 ha         1 EY7       0.145000
     28 H5           6.6580     3.2530     6.3380 ha         1 EY7       0.122000
@<TRIPOS>BOND
     1     6     7 ar
     2     6     5 ar
     3     7    13 ar
     4     5    11 ar
     5    13    12 ar
     6    11    12 ar
     7    11    10 ar
     8    12    14 ar
     9    10     9 ar
    10    14    15 ar
    11     9    15 ar
    12     9     3 1
    13     2     4 1
    14    15    16 1
    15     8     4 1
    16     8     3 1
    17     4     1 1
    18    16    17 1
    19     3    18 1
    20     3    19 1
    21     5    27 1
    22     6    28 1
    23     7    20 1
    24     8    21 1
    25     8    22 1
    26    13    23 1
    27    17    24 1
    28    17    25 1
    29    17    26 1
@<TRIPOS>SUBSTRUCTURE
     1 EY7         1 TEMP              0 ****  ****    0 ROOT
