@<TRIPOS>MOLECULE
molecule
   46    49     1     0     0
SMALL
bcc


@<TRIPOS>ATOM
      1 O4           0.0000     0.0000     0.0000 o          1 EY8      -0.500300
      2 C7           2.2740    -3.7420    -1.5070 c3         1 EY8       0.146400
      3 C9           4.4030    -3.5070    -0.4510 ca         1 EY8       0.109100
      4 C10          5.7600    -3.7940    -0.4520 ca         1 EY8      -0.175000
      5 C11          6.4910    -3.6910     0.7190 ca         1 EY8       0.162900
      6 C13          5.8720    -3.3030     1.8950 ca         1 EY8      -0.171000
      7 C14          4.5190    -3.0190     1.9040 ca         1 EY8      -0.093000
      8 C15          3.7840    -3.1200     0.7350 ca         1 EY8      -0.055400
      9 C19          0.2480    -2.6610     1.8780 ca         1 EY8      -0.164600
     10 C20         -0.4120    -2.0480     0.8110 ca         1 EY8      -0.177000
     11 C21         -1.7900    -1.9870     0.7920 ca         1 EY8      -0.092000
     12 C22         -2.5240    -2.5340     1.8330 ca         1 EY8       0.121100
     13 C24         -4.5720    -3.5790     2.4220 c3         1 EY8       0.071400
     14 S2           1.4210     0.0000     0.0000 s6         1 EY8       1.111900
     15 O3           2.1540     0.0000     1.2180 o          1 EY8      -0.500300
     16 C5           2.0570    -1.2720    -1.1250 c3         1 EY8      -0.185600
     17 C6           1.7380    -2.6580    -0.5610 c3         1 EY8       0.049700
     18 O8           3.6940    -3.6070    -1.6070 os         1 EY8      -0.325900
     19 N16          2.4070    -2.8350     0.7400 n          1 EY8      -0.393000
     20 C17          1.7230    -2.7260     1.8960 c          1 EY8       0.675700
     21 O18          2.3190    -2.6810     2.9550 o          1 EY8      -0.538100
     22 O23         -3.8810    -2.4810     1.8230 os         1 EY8      -0.311900
     23 C25         -3.9510    -3.9030     3.7570 c          1 EY8       0.665500
     24 O26         -4.6340    -4.3460     4.6550 o          1 EY8      -0.574500
     25 N27         -2.6300    -3.6970     3.9480 ns         1 EY8      -0.460100
     26 C28         -1.8700    -3.1500     2.9030 ca         1 EY8       0.020600
     27 C29         -0.4910    -3.2100     2.9300 ca         1 EY8      -0.079000
     28 H1           2.1160    -4.6900    -1.0070 h1         1 EY8       0.089700
     29 H2           1.7730    -3.7260    -2.4670 h1         1 EY8       0.089700
     30 H3           6.2540    -4.0760    -1.3740 ha         1 EY8       0.170000
     31 H4           6.4420    -3.2260     2.8130 ha         1 EY8       0.166000
     32 H5           4.0400    -2.7020     2.8240 ha         1 EY8       0.210000
     33 H6           0.1680    -1.5570     0.0380 ha         1 EY8       0.101000
     34 H7          -2.3020    -1.5090    -0.0350 ha         1 EY8       0.161000
     35 H8          -4.4810    -4.4410     1.7710 h1         1 EY8       0.098700
     36 H9          -5.6170    -3.3270     2.5540 h1         1 EY8       0.098700
     37 H10          2.0940     1.2940    -1.6780 hn         1 EY8       0.495800
     38 H11          2.5940     1.7380    -0.1520 hn         1 EY8       0.495800
     39 H12          1.5050    -1.1770    -2.0520 h1         1 EY8       0.129200
     40 H13          3.1150    -1.1570    -1.3280 h1         1 EY8       0.129200
     41 H14          0.6770    -2.8180    -0.4160 h1         1 EY8       0.142700
     42 H15         -2.1690    -4.0720     4.7530 hn         1 EY8       0.352500
     43 H16          0.0170    -3.6870     3.7600 ha         1 EY8       0.171000
     44 N1           1.8300     1.4330    -0.7230 nz         1 EY8      -0.815500
     45 H131         1.0950     2.1120    -0.6880 hn         1 EY8       0.495800
     46 F12          7.8120    -3.9710     0.7140 f          1 EY8      -0.119900
@<TRIPOS>BOND
     1    13    22 1
     2    13    23 1
     3    24    23 2
     4    22    12 1
     5    23    25 1
     6    12    11 ar
     7    12    26 ar
     8    25    26 1
     9    11    10 ar
    10    26    27 ar
    11    10     9 ar
    12    27     9 ar
    13     9    20 1
    14     6     7 ar
    15     6     5 ar
    16    20    21 2
    17    20    19 1
    18     7     8 ar
    19    46     5 1
    20     5     4 ar
    21     8    19 1
    22     8     3 ar
    23     4     3 ar
    24    19    17 1
    25     3    18 1
    26     2    18 1
    27     2    17 1
    28    17    16 1
    29     1    14 2
    30    16    14 1
    31    44    14 1
    32    14    15 2
    33     2    28 1
    34     2    29 1
    35     4    30 1
    36     6    31 1
    37     7    32 1
    38    10    33 1
    39    11    34 1
    40    13    35 1
    41    13    36 1
    42    44    37 1
    43    44    38 1
    44    16    39 1
    45    16    40 1
    46    17    41 1
    47    25    42 1
    48    27    43 1
    49    45    44 1
@<TRIPOS>SUBSTRUCTURE
     1 EY8         1 TEMP              0 ****  ****    0 ROOT
