@<TRIPOS>MOLECULE
EY8
   46    49     1     0     0
SMALL
bcc


@<TRIPOS>ATOM
      1 O4           0.0000     0.0000     0.0000 o          1 EY8      -0.480800
      2 C7           2.2740    -3.7420    -1.5070 c3         1 EY8       0.215400
      3 C9           4.4030    -3.5070    -0.4510 ca         1 EY8       0.116100
      4 C10          5.7600    -3.7940    -0.4520 ca         1 EY8      -0.146000
      5 C11          6.4910    -3.6910     0.7190 ca         1 EY8       0.141900
      6 C13          5.8720    -3.3030     1.8950 ca         1 EY8      -0.131000
      7 C14          4.5190    -3.0190     1.9040 ca         1 EY8      -0.082000
      8 C15          3.7840    -3.1200     0.7350 ca         1 EY8      -0.188400
      9 C19          0.2480    -2.6610     1.8780 ca         1 EY8      -0.172600
     10 C20         -0.4120    -2.0480     0.8110 ca         1 EY8      -0.204000
     11 C21         -1.7900    -1.9870     0.7920 ca         1 EY8      -0.060000
     12 C22         -2.5240    -2.5340     1.8330 ca         1 EY8       0.131100
     13 C24         -4.5720    -3.5790     2.4220 c3         1 EY8       0.150400
     14 S2           1.4210     0.0000     0.0000 s6         1 EY8       0.836900
     15 O3           2.1540     0.0000     1.2180 o          1 EY8      -0.480800
     16 C5           2.0570    -1.2720    -1.1250 c3         1 EY8       0.002400
     17 C6           1.7380    -2.6580    -0.5610 c3         1 EY8      -0.078300
     18 O8           3.6940    -3.6070    -1.6070 os         1 EY8      -0.302900
     19 N16          2.4070    -2.8350     0.7400 n          1 EY8      -0.004000
     20 C17          1.7230    -2.7260     1.8960 c          1 EY8       0.605700
     21 O18          2.3190    -2.6810     2.9550 o          1 EY8      -0.576100
     22 O23         -3.8810    -2.4810     1.8230 os         1 EY8      -0.294900
     23 C25         -3.9510    -3.9030     3.7570 c          1 EY8       0.561500
     24 O26         -4.6340    -4.3460     4.6550 o          1 EY8      -0.613500
     25 N27         -2.6300    -3.6970     3.9480 ns         1 EY8      -0.017100
     26 C28         -1.8700    -3.1500     2.9030 ca         1 EY8      -0.132400
     27 C29         -0.4910    -3.2100     2.9300 ca         1 EY8      -0.041000
     28 H1           2.1160    -4.6900    -1.0070 h1         1 EY8       0.042700
     29 H2           1.7730    -3.7260    -2.4670 h1         1 EY8       0.042700
     30 H3           6.2540    -4.0760    -1.3740 ha         1 EY8       0.140000
     31 H4           6.4420    -3.2260     2.8130 ha         1 EY8       0.134000
     32 H5           4.0400    -2.7020     2.8240 ha         1 EY8       0.193000
     33 H6           0.1680    -1.5570     0.0380 ha         1 EY8       0.127000
     34 H7          -2.3020    -1.5090    -0.0350 ha         1 EY8       0.125000
     35 H8          -4.4810    -4.4410     1.7710 h1         1 EY8       0.046700
     36 H9          -5.6170    -3.3270     2.5540 h1         1 EY8       0.046700
     37 H10          2.0940     1.2940    -1.6780 hn         1 EY8       0.323467
     38 H11          2.5940     1.7380    -0.1520 hn         1 EY8       0.323467
     39 H12          1.5050    -1.1770    -2.0520 h1         1 EY8       0.097200
     40 H13          3.1150    -1.1570    -1.3280 h1         1 EY8       0.097200
     41 H14          0.6770    -2.8180    -0.4160 h1         1 EY8       0.134700
     42 H15         -2.1690    -4.0720     4.7530 hn         1 EY8       0.193500
     43 H16          0.0170    -3.6870     3.7600 ha         1 EY8       0.137000
     44 N1           1.8300     1.4330    -0.7230 nz         1 EY8      -0.169500
     45 H131         1.0950     2.1120    -0.6880 hn         1 EY8       0.323467
     46 F12          7.8120    -3.9710     0.7140 f          1 EY8      -0.113900
@<TRIPOS>BOND
     1     1    14 2   
     2     2    17 1   
     3     2    18 1   
     4     2    28 1   
     5     2    29 1   
     6     3     4 ar  
     7     3     8 ar  
     8     3    18 1   
     9     4     5 ar  
    10     4    30 1   
    11     5     6 ar  
    12     5    46 1   
    13     6     7 ar  
    14     6    31 1   
    15     7     8 ar  
    16     7    32 1   
    17     8    19 1   
    18     9    10 ar  
    19     9    20 1   
    20     9    27 ar  
    21    10    11 ar  
    22    10    33 1   
    23    11    12 ar  
    24    11    34 1   
    25    12    22 1   
    26    12    26 ar  
    27    13    22 1   
    28    13    23 1   
    29    13    35 1   
    30    13    36 1   
    31    14    15 2   
    32    14    16 1   
    33    14    44 1   
    34    16    17 1   
    35    16    39 1   
    36    16    40 1   
    37    17    19 1   
    38    17    41 1   
    39    19    20 1   
    40    20    21 2   
    41    23    24 2   
    42    23    25 1   
    43    25    26 1   
    44    25    42 1   
    45    26    27 ar  
    46    27    43 1   
    47    37    44 1   
    48    38    44 1   
    49    44    45 1   
@<TRIPOS>SUBSTRUCTURE
     1 EY8         1 TEMP              0 ****  ****    0 ROOT
