@<TRIPOS>MOLECULE
molecule
   28    29     1     0     0
SMALL
bcc


@<TRIPOS>ATOM
      1 C1           0.0000     0.0000     0.0000 cc         1 EYA       0.516900
      2 C2          -0.7140     0.0060    -1.3260 c3         1 EYA      -0.107700
      3 C3           0.3140     0.0040    -2.4600 c3         1 EYA      -0.169400
      4 C4          -0.4010     0.0110    -3.7860 c          1 EYA       0.888600
      5 C5           2.0100     0.0000     1.1550 ca         1 EYA       0.217400
      6 C6           3.4060    -0.0060     1.1560 ca         1 EYA      -0.130000
      7 C7           4.0870    -0.0220     2.3530 ca         1 EYA      -0.099000
      8 C8           3.4020    -0.0010     3.5610 ca         1 EYA      -0.181000
      9 O1          -1.6080     0.0170    -3.8220 o          1 EYA      -0.854800
     10 N1           1.2990     0.0000     0.0000 nd         1 EYA      -0.650100
     11 N           -0.7470     0.0000     1.1350 n          1 EYA      -0.380300
     12 C           -2.2090     0.0070     1.0410 c3         1 EYA       0.076300
     13 O            0.3040     0.0100    -4.9290 o          1 EYA      -0.854800
     14 O2          -0.8110    -0.0040     3.3760 o          1 EYA      -0.656500
     15 C11         -0.1530    -0.0040     2.3510 c          1 EYA       0.707100
     16 C10          1.3160    -0.0110     2.3870 ca         1 EYA      -0.225600
     17 C9           2.0250    -0.0110     3.5860 ca         1 EYA      -0.053000
     18 H1          -1.3310     0.8940    -1.4000 hc         1 EYA       0.072700
     19 H2          -1.3390    -0.8750    -1.4040 hc         1 EYA       0.072700
     20 H3           0.9310    -0.8830    -2.3870 hc         1 EYA       0.048700
     21 H4           0.9390     0.8860    -2.3830 hc         1 EYA       0.048700
     22 H5           3.9510    -0.0230     0.2200 ha         1 EYA       0.152000
     23 H6           5.1700    -0.0140     2.3520 ha         1 EYA       0.122000
     24 H7           3.9550    -0.0140     4.4920 ha         1 EYA       0.121000
     25 H8          -2.5400    -0.8750     0.5060 h1         1 EYA       0.058033
     26 H9          -2.5330     0.8940     0.5110 h1         1 EYA       0.058033
     27 H10         -2.6350     0.0060     2.0370 h1         1 EYA       0.058033
     28 H12          1.4960     0.0060     4.5320 ha         1 EYA       0.142000
@<TRIPOS>BOND
     1     7     8 ar
     2     7     6 ar
     3     8    17 ar
     4     6     5 ar
     5    17    16 ar
     6     5    16 ar
     7     5    10 1
     8    16    15 1
     9    10     1 2
    10    15    14 2
    11    15    11 1
    12     9     4 1
    13     1    11 1
    14     1     2 1
    15    11    12 1
    16     3     4 1
    17     3     2 1
    18     4    13 1
    19     2    18 1
    20     2    19 1
    21     3    20 1
    22     3    21 1
    23     6    22 1
    24     7    23 1
    25     8    24 1
    26    12    25 1
    27    12    26 1
    28    12    27 1
    29    17    28 1
@<TRIPOS>SUBSTRUCTURE
     1 EYA         1 TEMP              0 ****  ****    0 ROOT
