@<TRIPOS>MOLECULE
EYA
   28    29     1     0     0
SMALL
bcc


@<TRIPOS>ATOM
      1 C1           0.0000     0.0000     0.0000 cc         1 EYA       0.321900
      2 C2          -0.7140     0.0060    -1.3260 c3         1 EYA      -0.058700
      3 C3           0.3140     0.0040    -2.4600 c3         1 EYA      -0.126400
      4 C4          -0.4010     0.0110    -3.7860 c          1 EYA       0.978600
      5 C5           2.0100     0.0000     1.1550 ca         1 EYA       0.178400
      6 C6           3.4060    -0.0060     1.1560 ca         1 EYA      -0.105000
      7 C7           4.0870    -0.0220     2.3530 ca         1 EYA      -0.072000
      8 C8           3.4020    -0.0010     3.5610 ca         1 EYA      -0.158000
      9 O1          -1.6080     0.0170    -3.8220 o          1 EYA      -0.904300
     10 N1           1.2990     0.0000     0.0000 nd         1 EYA      -0.545100
     11 N           -0.7470     0.0000     1.1350 n          1 EYA       0.031700
     12 C           -2.2090     0.0070     1.0410 c3         1 EYA       0.039300
     13 O            0.3040     0.0100    -4.9290 o          1 EYA      -0.904300
     14 O2          -0.8110    -0.0040     3.3760 o          1 EYA      -0.700500
     15 C11         -0.1530    -0.0040     2.3510 c          1 EYA       0.629100
     16 C10          1.3160    -0.0110     2.3870 ca         1 EYA      -0.236600
     17 C9           2.0250    -0.0110     3.5860 ca         1 EYA      -0.017000
     18 H1          -1.3310     0.8940    -1.4000 hc         1 EYA       0.041700
     19 H2          -1.3390    -0.8750    -1.4040 hc         1 EYA       0.041700
     20 H3           0.9310    -0.8830    -2.3870 hc         1 EYA       0.022700
     21 H4           0.9390     0.8860    -2.3830 hc         1 EYA       0.022700
     22 H5           3.9510    -0.0230     0.2200 ha         1 EYA       0.123000
     23 H6           5.1700    -0.0140     2.3520 ha         1 EYA       0.093000
     24 H7           3.9550    -0.0140     4.4920 ha         1 EYA       0.097000
     25 H8          -2.5400    -0.8750     0.5060 h1         1 EYA       0.030700
     26 H9          -2.5330     0.8940     0.5110 h1         1 EYA       0.030700
     27 H10         -2.6350     0.0060     2.0370 h1         1 EYA       0.030700
     28 H12          1.4960     0.0060     4.5320 ha         1 EYA       0.115000
@<TRIPOS>BOND
     1     1     2 1   
     2     1    10 2   
     3     1    11 1   
     4     2     3 1   
     5     2    18 1   
     6     2    19 1   
     7     3     4 1   
     8     3    20 1   
     9     3    21 1   
    10     4     9 1   
    11     4    13 1   
    12     5     6 ar  
    13     5    10 1   
    14     5    16 ar  
    15     6     7 ar  
    16     6    22 1   
    17     7     8 ar  
    18     7    23 1   
    19     8    17 ar  
    20     8    24 1   
    21    11    12 1   
    22    11    15 1   
    23    12    25 1   
    24    12    26 1   
    25    12    27 1   
    26    14    15 2   
    27    15    16 1   
    28    16    17 ar  
    29    17    28 1   
@<TRIPOS>SUBSTRUCTURE
     1 EYA         1 TEMP              0 ****  ****    0 ROOT
