@<TRIPOS>MOLECULE
molecule
   44    45     1     0     0
SMALL
bcc


@<TRIPOS>ATOM
      1 O01          0.0000     0.0000     0.0000 o          1 EYC      -0.555100
      2 C02          1.2140     0.0000     0.0000 c          1 EYC       0.616100
      3 C03          1.9660     0.0000     1.3060 c3         1 EYC       0.012000
      4 N05          1.8880    -0.0050    -1.1670 ns         1 EYC      -0.519600
      5 C06          1.1930    -0.1200    -2.3750 ca         1 EYC       0.041600
      6 C07          1.6670     0.5270    -3.5110 ca         1 EYC      -0.176500
      7 C08          0.9870     0.4160    -4.7040 ca         1 EYC      -0.141000
      8 C09         -0.1840    -0.3470    -4.7690 ca         1 EYC       0.131500
      9 C10         -0.8940    -0.4640    -6.0080 cg         1 EYC      -0.122000
     10 C27         -0.6570    -0.9940    -3.6250 ca         1 EYC      -0.128500
     11 S28         -2.1320    -1.9570    -3.7020 s6         1 EYC       0.758600
     12 O29         -1.7470    -3.3270    -4.2430 o          1 EYC      -0.480700
     13 O30         -2.5490    -2.1580    -2.3580 o          1 EYC      -0.480700
     14 O31         -2.9550    -1.3520    -4.6890 o          1 EYC      -0.480700
     15 C32          0.0330    -0.8830    -2.4380 ca         1 EYC      -0.075000
     16 C11         -1.4590    -0.5650    -7.0320 ch         1 EYC      -0.122000
     17 C12         -2.6770    -0.5370    -7.9500 ca         1 EYC       0.131500
     18 C13         -2.3110     0.1530    -9.1430 ca         1 EYC      -0.141000
     19 C14         -3.2660     0.3160   -10.1610 ca         1 EYC      -0.176500
     20 C15         -4.4410    -0.2320    -9.8380 ca         1 EYC       0.041600
     21 N16         -5.5620    -0.0350   -10.8610 ns         1 EYC      -0.519600
     22 C17         -5.3760     0.6320   -12.2880 c          1 EYC       0.616100
     23 O18         -4.0700     0.8570   -12.3890 o          1 EYC      -0.555100
     24 C19         -6.4690     0.9350   -13.0580 c3         1 EYC       0.012000
     25 C21         -4.4950    -1.3160    -8.9610 ca         1 EYC      -0.075000
     26 C22         -3.6070    -0.9520    -7.7330 ca         1 EYC      -0.128500
     27 S23         -4.1310    -1.5000    -6.1250 s6         1 EYC       0.758600
     28 O24         -4.5350    -0.1240    -5.2880 o          1 EYC      -0.480700
     29 O25         -5.3610    -2.3240    -6.1340 o          1 EYC      -0.480700
     30 O26         -3.2960    -2.0200    -5.3580 o          1 EYC      -0.480700
     31 H1           2.5530     0.9070     1.3850 h1         1 EYC       0.077200
     32 H2           2.6240    -0.8600     1.3440 h1         1 EYC       0.077200
     33 H4           2.8880    -0.0280    -1.1670 hn         1 EYC       0.286500
     34 H5           2.5480     1.1550    -3.4490 ha         1 EYC       0.134500
     35 H6           1.3580     0.9200    -5.5880 ha         1 EYC       0.113500
     36 H7          -0.3580    -1.3510    -1.5420 ha         1 EYC       0.161000
     37 H8          -1.5540     0.9270    -9.1110 ha         1 EYC       0.113500
     38 H9          -3.0670     0.9860   -10.9880 ha         1 EYC       0.134500
     39 H10         -6.4770    -0.3550   -10.6140 hn         1 EYC       0.286500
     40 H11         -7.2100     0.1490   -12.9700 h1         1 EYC       0.077200
     41 H12         -6.8940     1.8780   -12.7360 h1         1 EYC       0.077200
     42 H14         -5.4490    -1.7700    -8.7180 ha         1 EYC       0.161000
     43 Cl1         -5.8290     1.0860   -15.0420 cl         1 EYC      -0.248900
     44 Cl2          0.7940    -0.0010     2.6760 cl         1 EYC      -0.248900
@<TRIPOS>BOND
     1    24    22 1
     2    23    22 2
     3    22    21 1
     4    21    20 1
     5    19    20 ar
     6    19    18 ar
     7    20    25 ar
     8    18    17 ar
     9    13    11 1
    10    25    26 ar
    11    17    26 ar
    12    17    16 1
    13    14    11 1
    14    12    11 1
    15    11    10 1
    16    26    27 1
    17    16     9 3
    18     9     8 1
    19    10     8 ar
    20    10    15 ar
    21     8     7 ar
    22    27    28 1
    23    27    30 1
    24    27    29 1
    25    15     5 ar
    26     7     6 ar
    27     5     6 ar
    28     5     4 1
    29     4     2 1
    30     2     1 2
    31     2     3 1
    32     3    31 1
    33     3    32 1
    34     4    33 1
    35     6    34 1
    36     7    35 1
    37    15    36 1
    38    18    37 1
    39    19    38 1
    40    21    39 1
    41    24    40 1
    42    24    41 1
    43    25    42 1
    44    24    43 1
    45     3    44 1
@<TRIPOS>SUBSTRUCTURE
     1 EYC         1 TEMP              0 ****  ****    0 ROOT
