@<TRIPOS>MOLECULE
EYH
   65    69     1     0     0
SMALL
bcc


@<TRIPOS>ATOM
      1 C1           0.0000     0.0000     0.0000 cc         1 EYH       0.267000
      2 C12          1.1690    -0.0010     3.5110 c3         1 EYH       0.205300
      3 C14          0.6960     1.2350     4.2320 ca         1 EYH      -0.131300
      4 C15          3.5270    -0.0000     4.4920 ca         1 EYH      -0.050400
      5 C16          0.6700     1.2600     5.6140 ca         1 EYH      -0.056300
      6 C17          0.2360     2.3930     6.2760 ca         1 EYH      -0.102000
      7 C18         -0.1730     3.5020     5.5570 ca         1 EYH      -0.023600
      8 C19         -0.1470     3.4750     4.1740 ca         1 EYH      -0.109000
      9 C20          0.2930     2.3430     3.5120 ca         1 EYH      -0.077000
     10 C21          4.0180    -1.2010     4.9880 ca         1 EYH      -0.072300
     11 C22          4.9060    -1.1970     6.0470 ca         1 EYH      -0.091000
     12 C23          5.3040    -0.0010     6.6130 ca         1 EYH      -0.083000
     13 C24          4.8170     1.1970     6.1200 ca         1 EYH      -0.041600
     14 C25          3.9300     1.2010     5.0610 ca         1 EYH      -0.079000
     15 C26          3.5830    -2.5050     4.3720 c3         1 EYH       0.053200
     16 C29          1.1150     0.0530     6.3990 c3         1 EYH       0.029200
     17 C30         -2.2470    -0.1220    -1.0900 ca         1 EYH       0.451200
     18 N2           1.3120     0.0000     0.0000 nd         1 EYH      -0.498000
     19 N3          -0.4380    -0.0000     1.2960 na         1 EYH       0.372100
     20 C4          -1.8340    -0.0010     1.7410 c3         1 EYH      -0.096000
     21 C5          -1.8850    -0.2100     3.2560 c3         1 EYH      -0.035600
     22 C6          -2.4820     1.3390     1.3880 c3         1 EYH      -0.035600
     23 C7          -0.8610     0.0060    -1.2010 ca         1 EYH      -0.422100
     24 C8           0.6590    -0.0000     2.0920 cc         1 EYH      -0.454900
     25 C9           1.7550     0.0000     1.2770 cd         1 EYH       0.227800
     26 C10          2.9660    -0.0010     2.1120 c          1 EYH       0.570000
     27 N11          2.6340    -0.0000     3.4150 n          1 EYH      -0.038000
     28 O13          4.1050     0.0000     1.6860 o          1 EYH      -0.638500
     29 Cl2          5.3220     2.6970     6.8350 cl         1 EYH      -0.020400
     30 Cl3         -0.7190     4.9240     6.3870 cl         1 EYH      -0.016400
     31 N31         -2.9830    -0.1180    -2.1890 nb         1 EYH      -0.737000
     32 C32         -2.4270     0.0060    -3.3820 ca         1 EYH       0.875300
     33 N33         -1.1170     0.1310    -3.5370 nb         1 EYH      -0.721000
     34 C34         -0.3070     0.1410    -2.4870 ca         1 EYH       0.718600
     35 O35          1.0310     0.2680    -2.6510 os         1 EYH      -0.371100
     36 C36          1.5100     0.4000    -3.9900 c3         1 EYH       0.243700
     37 O37         -3.2190     0.0070    -4.4800 os         1 EYH      -0.407100
     38 C38         -4.6260    -0.1300    -4.2640 c3         1 EYH       0.258700
     39 H1           0.8310    -0.8930     4.0260 h1         1 EYH       0.046700
     40 H2           0.2150     2.4120     7.3590 ha         1 EYH       0.122000
     41 H3          -0.4650     4.3430     3.6090 ha         1 EYH       0.119000
     42 H4           0.3130     2.3220     2.4290 ha         1 EYH       0.124000
     43 H5           5.2890    -2.1330     6.4340 ha         1 EYH       0.113000
     44 H6           6.0000    -0.0020     7.4430 ha         1 EYH       0.115000
     45 H7           3.5490     2.1390     4.6760 ha         1 EYH       0.128000
     46 H8           2.5140    -2.6260     4.4990 hc         1 EYH       0.015367
     47 H9           3.8240    -2.5040     3.3160 hc         1 EYH       0.015367
     48 H10          4.0990    -3.3240     4.8590 hc         1 EYH       0.015367
     49 H11          1.9620     0.3190     7.0200 hc         1 EYH       0.021033
     50 H12          1.4020    -0.7360     5.7160 hc         1 EYH       0.021033
     51 H13          0.3010    -0.2900     7.0270 hc         1 EYH       0.021033
     52 H15         -2.3700    -0.8030     1.2470 h1         1 EYH       0.057700
     53 H16         -1.5060     0.6740     3.7550 hc         1 EYH       0.028033
     54 H17         -1.2760    -1.0650     3.5240 hc         1 EYH       0.028033
     55 H18         -2.9090    -0.3860     3.5610 hc         1 EYH       0.028033
     56 H19         -1.8520     1.8710     0.6850 hc         1 EYH       0.028033
     57 H20         -3.4530     1.1650     0.9430 hc         1 EYH       0.028033
     58 H21         -2.5980     1.9320     2.2880 hc         1 EYH       0.028033
     59 H22          1.2380    -0.4800    -4.5600 h1         1 EYH       0.005367
     60 H23          2.5890     0.5040    -3.9790 h1         1 EYH       0.005367
     61 H24          1.0680     1.2770    -4.4470 h1         1 EYH       0.005367
     62 H25         -4.9810     0.6970    -3.6610 h1         1 EYH       0.002033
     63 H26         -5.1400    -0.1290    -5.2180 h1         1 EYH       0.002033
     64 H27         -4.8230    -1.0630    -3.7490 h1         1 EYH       0.002033
     65 H14         -2.7130    -0.2250    -0.1170 h4         1 EYH       0.012100
@<TRIPOS>BOND
     1     1    18 2   
     2     1    19 1   
     3     1    23 1   
     4     2     3 1   
     5     2    24 1   
     6     2    27 1   
     7     2    39 1   
     8     3     5 ar  
     9     3     9 ar  
    10     4    10 ar  
    11     4    14 ar  
    12     4    27 1   
    13     5     6 ar  
    14     5    16 1   
    15     6     7 ar  
    16     6    40 1   
    17     7     8 ar  
    18     7    30 1   
    19     8     9 ar  
    20     8    41 1   
    21     9    42 1   
    22    10    11 ar  
    23    10    15 1   
    24    11    12 ar  
    25    11    43 1   
    26    12    13 ar  
    27    12    44 1   
    28    13    14 ar  
    29    13    29 1   
    30    14    45 1   
    31    15    46 1   
    32    15    47 1   
    33    15    48 1   
    34    16    49 1   
    35    16    50 1   
    36    16    51 1   
    37    17    23 ar  
    38    17    31 ar  
    39    17    65 1   
    40    18    25 1   
    41    19    20 1   
    42    19    24 1   
    43    20    21 1   
    44    20    22 1   
    45    20    52 1   
    46    21    53 1   
    47    21    54 1   
    48    21    55 1   
    49    22    56 1   
    50    22    57 1   
    51    22    58 1   
    52    23    34 ar  
    53    24    25 2   
    54    25    26 1   
    55    26    27 1   
    56    26    28 2   
    57    31    32 ar  
    58    32    33 ar  
    59    32    37 1   
    60    33    34 ar  
    61    34    35 1   
    62    35    36 1   
    63    36    59 1   
    64    36    60 1   
    65    36    61 1   
    66    37    38 1   
    67    38    62 1   
    68    38    63 1   
    69    38    64 1   
@<TRIPOS>SUBSTRUCTURE
     1 EYH         1 TEMP              0 ****  ****    0 ROOT
