@<TRIPOS>MOLECULE
molecule
   22    23     1     0     0
SMALL
bcc


@<TRIPOS>ATOM
      1 C1           0.0000     0.0000     0.0000 c3         1 EYJ      -0.181400
      2 C2           1.5310     0.0000     0.0000 c3         1 EYJ      -0.082700
      3 C3           2.0330     0.0000     1.4220 cc         1 EYJ       0.453200
      4 C6           3.5010    -1.5180     5.5530 ca         1 EYJ      -0.135000
      5 C4           2.7180    -0.9080     3.3610 ca         1 EYJ       0.140400
      6 O1          -1.8220    -0.0000    -1.6660 o          1 EYJ      -0.849300
      7 C           -0.5010    -0.0000    -1.4210 c          1 EYJ       0.892600
      8 O            0.2830     0.0010    -2.3390 o          1 EYJ      -0.849300
      9 S            2.3520     1.4110     2.3270 ss         1 EYJ      -0.133100
     10 C9           2.8420     0.4410     3.7130 ca         1 EYJ      -0.076100
     11 N            2.2680    -1.0570     2.1010 nd         1 EYJ      -0.605100
     12 C8           3.2940     0.7980     4.9810 ca         1 EYJ      -0.082000
     13 C7           3.6210    -0.1790     5.8940 ca         1 EYJ      -0.147000
     14 C5           3.0610    -1.8860     4.3170 ca         1 EYJ      -0.085000
     15 H1          -0.3610     0.8850     0.5100 hc         1 EYJ       0.039700
     16 H2          -0.3610    -0.8850     0.5110 hc         1 EYJ       0.039700
     17 H3           1.8920     0.8850    -0.5110 hc         1 EYJ       0.075700
     18 H4           1.8920    -0.8850    -0.5110 hc         1 EYJ       0.075700
     19 H5           3.7600    -2.2810     6.2770 ha         1 EYJ       0.122000
     20 H7           3.3880     1.8440     5.2490 ha         1 EYJ       0.126000
     21 H8           3.9720     0.0980     6.8800 ha         1 EYJ       0.121000
     22 H9           2.9730    -2.9360     4.0670 ha         1 EYJ       0.139000
@<TRIPOS>BOND
     1    14     4 ar
     2    14     5 ar
     3     4    13 ar
     4    11     5 1
     5    11     3 2
     6     5    10 ar
     7     8     7 1
     8     2     3 1
     9     2     1 1
    10     3     9 1
    11    13    12 ar
    12    10    12 ar
    13    10     9 1
    14     7     1 1
    15     7     6 1
    16     1    15 1
    17     1    16 1
    18     2    17 1
    19     2    18 1
    20     4    19 1
    21    12    20 1
    22    13    21 1
    23    14    22 1
@<TRIPOS>SUBSTRUCTURE
     1 EYJ         1 TEMP              0 ****  ****    0 ROOT
