@<TRIPOS>MOLECULE
EYK
   26    26     1     0     0
SMALL
bcc


@<TRIPOS>ATOM
      1 CAA        -0.0260   -0.0580    0.0650 c3        1 EYK     -0.088433
      2 CAL         1.4980   -0.0090    0.0210 c3        1 EYK      0.002300
      3 CAB         2.0040    0.0320    1.4610 c3        1 EYK     -0.088433
      4 CAC         1.9860   -1.2870   -0.6560 c3        1 EYK     -0.088433
      5 CAK         2.0090    1.1930   -0.7310 ca        1 EYK     -0.048300
      6 CAH         1.1290    2.1150   -1.2980 ca        1 EYK     -0.128000
      7 CAI         1.6120    3.2340   -1.9980 ca        1 EYK      0.091100
      8 OAD         0.6550    4.0810   -2.5180 oh        1 EYK     -0.499100
      9 CAF         2.9830    3.4580   -2.1500 ca        1 EYK     -0.179000
     10 CAG         3.8740    2.5470   -1.5900 ca        1 EYK     -0.178000
     11 CAJ         3.3970    1.4310   -0.8910 ca        1 EYK      0.094100
     12 OAE         4.2800    0.5270   -0.3360 oh        1 EYK     -0.500100
     13 HAA        -0.4500   -0.1190   -0.9660 hc        1 EYK      0.039589
     14 HAAA       -0.3530   -0.9630    0.6310 hc        1 EYK      0.039589
     15 HAAB       -0.4370    0.8430    0.5800 hc        1 EYK      0.039589
     16 HAB         1.6060   -0.8460    2.0250 hc        1 EYK      0.039589
     17 HABA        3.1190   -0.0040    1.4890 hc        1 EYK      0.039589
     18 HABB        1.6600    0.9670    1.9650 hc        1 EYK      0.039589
     19 HAC         1.6300   -1.3230   -1.7130 hc        1 EYK      0.039589
     20 HACA        3.1010   -1.3350   -0.6490 hc        1 EYK      0.039589
     21 HACB        1.5880   -2.1770   -0.1120 hc        1 EYK      0.039589
     22 HAH         0.0380    1.9990   -1.2160 ha        1 EYK      0.157000
     23 HOAD        1.1150    4.8020   -2.9710 ho        1 EYK      0.416000
     24 HAF         3.3530    4.3340   -2.6980 ha        1 EYK      0.135000
     25 HAG         4.9570    2.7050   -1.6980 ha        1 EYK      0.133000
     26 HOAE        5.1780    0.8310   -0.5320 ho        1 EYK      0.414000
@<TRIPOS>BOND
     1    1    2 1   
     2    1   13 1   
     3    1   14 1   
     4    1   15 1   
     5    2    3 1   
     6    2    4 1   
     7    2    5 1   
     8    3   16 1   
     9    3   17 1   
    10    3   18 1   
    11    4   19 1   
    12    4   20 1   
    13    4   21 1   
    14    5    6 ar  
    15    5   11 ar  
    16    6    7 ar  
    17    6   22 1   
    18    7    8 1   
    19    7    9 ar  
    20    8   23 1   
    21    9   10 ar  
    22    9   24 1   
    23   10   11 ar  
    24   10   25 1   
    25   11   12 1   
    26   12   26 1   
@<TRIPOS>SUBSTRUCTURE
     1 EYK         1 TEMP              0 ****  ****    0 ROOT
