@<TRIPOS>MOLECULE
molecule
   26    26     1     0     0
SMALL
bcc


@<TRIPOS>ATOM
      1 CAA          0.0000     0.0000     0.0000 c3         1 EYK      -0.082433
      2 CAL          1.5310     0.0000     0.0000 c3         1 EYK      -0.010700
      3 CAB          2.0400     0.0000     1.4420 c3         1 EYK      -0.082433
      4 CAC          2.0410    -1.2490    -0.7210 c3         1 EYK      -0.082433
      5 CAK          2.0320     1.2310    -0.7100 ca         1 EYK      -0.085300
      6 CAH          1.1350     2.1410    -1.2340 ca         1 EYK      -0.116000
      7 CAI          1.5970     3.2730    -1.8890 ca         1 EYK       0.069100
      8 OAD          0.7130     4.1680    -2.4050 oh         1 EYK      -0.519100
      9 CAF          2.9610     3.4930    -2.0140 ca         1 EYK      -0.123000
     10 CAG          3.8580     2.5840    -1.4890 ca         1 EYK      -0.208000
     11 CAJ          3.3970     1.4540    -0.8310 ca         1 EYK       0.132100
     12 OAE          4.2800     0.5610    -0.3100 oh         1 EYK      -0.494100
     13 HAA         -0.3610     0.8830     0.5130 hc         1 EYK       0.038589
     14 HAAA        -0.3610    -0.8860     0.5080 hc         1 EYK       0.038589
     15 HAAB        -0.3610     0.0020    -1.0210 hc         1 EYK       0.038589
     16 HAB          3.0750    -0.3180     1.4600 hc         1 EYK       0.038589
     17 HABA         1.4430    -0.6820     2.0360 hc         1 EYK       0.038589
     18 HABB         1.9620     0.9990     1.8530 hc         1 EYK       0.038589
     19 HAC          1.4520    -2.1070    -0.4180 hc         1 EYK       0.038589
     20 HACA         1.9510    -1.1100    -1.7920 hc         1 EYK       0.038589
     21 HACB         3.0800    -1.4150    -0.4650 hc         1 EYK       0.038589
     22 HAH          0.0700     1.9770    -1.1230 ha         1 EYK       0.153000
     23 HOAD         0.6060     4.0070    -3.3280 ho         1 EYK       0.415000
     24 HAF          3.3220     4.3760    -2.5260 ha         1 EYK       0.139000
     25 HAG          4.9230     2.7570    -1.5850 ha         1 EYK       0.132000
     26 HOAE         5.1600     0.8610    -0.4690 ho         1 EYK       0.418000
@<TRIPOS>BOND
     1     1     2 1
     2     2     3 1
     3     2     4 1
     4     2     5 1
     5     5     6 ar
     6     5    11 ar
     7     6     7 ar
     8     7     8 1
     9     7     9 ar
    10     9    10 ar
    11    10    11 ar
    12    11    12 1
    13     1    13 1
    14     1    14 1
    15     1    15 1
    16     3    16 1
    17     3    17 1
    18     3    18 1
    19     4    19 1
    20     4    20 1
    21     4    21 1
    22     6    22 1
    23     8    23 1
    24     9    24 1
    25    10    25 1
    26    12    26 1
@<TRIPOS>SUBSTRUCTURE
     1 EYK         1 TEMP              0 ****  ****    0 ROOT
