@<TRIPOS>MOLECULE
molecule
   28    29     1     0     0
SMALL
bcc


@<TRIPOS>ATOM
      1 C8           0.0000     0.0000     0.0000 ca         1 EYM      -0.170000
      2 C5          -3.1560     0.0060     6.9390 c          1 EYM       0.888600
      3 C6          -0.0090     0.0020     2.3960 ca         1 EYM       0.099400
      4 N1          -0.6940     0.0020     3.5560 nc         1 EYM      -0.548100
      5 C2          -0.0750     0.0040     4.7010 cd         1 EYM       0.417300
      6 C4          -2.3640     0.0050     5.6570 c3         1 EYM      -0.176400
      7 C1           1.3910     0.0040     4.7490 c          1 EYM       0.552200
      8 C3          -0.8690     0.0050     5.9830 c3         1 EYM      -0.087700
      9 O1          -4.4990     0.0060     6.8980 o          1 EYM      -0.854800
     10 O           -2.5850     0.0070     8.0040 o          1 EYM      -0.854800
     11 C11          1.3990     0.0020     2.3970 ca         1 EYM       0.030600
     12 N            2.0880     0.0030     3.5920 n          1 EYM      -0.340000
     13 C            3.5530     0.0040     3.6070 c3         1 EYM       0.082300
     14 C10          2.0880     0.0000     1.1880 ca         1 EYM      -0.180000
     15 C9           1.3880     0.0000     0.0000 ca         1 EYM      -0.104000
     16 C7          -0.6960     0.0010     1.1730 ca         1 EYM      -0.057000
     17 H1          -0.5360    -0.0000    -0.9410 ha         1 EYM       0.126000
     18 H2          -2.6080     0.8890     5.0810 hc         1 EYM       0.041700
     19 H3          -2.6080    -0.8800     5.0820 hc         1 EYM       0.041700
     20 H4          -0.6250     0.8900     6.5580 hc         1 EYM       0.080700
     21 H5          -0.6250    -0.8790     6.5600 hc         1 EYM       0.080700
     22 H7           3.9040     0.0060     4.6310 h1         1 EYM       0.050700
     23 H8           3.9190     0.8880     3.0980 h1         1 EYM       0.050700
     24 H9           3.9200    -0.8810     3.1010 h1         1 EYM       0.050700
     25 H10          3.1710     0.0000     1.1800 ha         1 EYM       0.128000
     26 H11          1.9260    -0.0010    -0.9400 ha         1 EYM       0.121000
     27 H12         -1.7790     0.0010     1.1600 ha         1 EYM       0.155000
     28 O2           1.9720     0.0050     5.8200 o          1 EYM      -0.623500
@<TRIPOS>BOND
     1     1    15 ar
     2     1    16 ar
     3    15    14 ar
     4    16     3 ar
     5    14    11 ar
     6     3    11 ar
     7     3     4 1
     8    11    12 1
     9     4     5 2
    10    10     2 1
    11    12    13 1
    12    12     7 1
    13     5     7 1
    14     5     8 1
    15     6     2 1
    16     6     8 1
    17     7    28 2
    18     2     9 1
    19     1    17 1
    20     6    18 1
    21     6    19 1
    22     8    20 1
    23     8    21 1
    24    13    22 1
    25    13    23 1
    26    13    24 1
    27    14    25 1
    28    15    26 1
    29    16    27 1
@<TRIPOS>SUBSTRUCTURE
     1 EYM         1 TEMP              0 ****  ****    0 ROOT
