@<TRIPOS>MOLECULE
EYN
   59    62     1     0     0
SMALL
bcc


@<TRIPOS>ATOM
      1 C1           0.0000     0.0000     0.0000 c3         1 EYN       0.002400
      2 C2           1.5300     0.0000     0.0000 c3         1 EYN      -0.052700
      3 C3           2.0400     0.0000     1.4420 c3         1 EYN       0.002400
      4 C7           5.7340    -1.7920    -0.1430 ca         1 EYN      -0.151400
      5 C8           6.2960    -1.0130    -1.1510 ca         1 EYN       0.115100
      6 C9           5.4680    -0.3120    -2.0150 ca         1 EYN      -0.152000
      7 C10          4.0920    -0.3890    -1.8730 ca         1 EYN       0.113900
      8 C13          8.4600    -1.2860    -0.1830 c3         1 EYN       0.206400
      9 C14          7.9900    -2.6370     0.3730 c3         1 EYN      -0.101300
     10 C19          7.0190    -3.5780     2.8890 ca         1 EYN      -0.112600
     11 C20          8.2570    -4.0920     2.4910 ca         1 EYN      -0.139000
     12 C21          9.1280    -4.6010     3.4290 ca         1 EYN      -0.109000
     13 C22          8.7770    -4.6070     4.7710 ca         1 EYN       0.119100
     14 C24          6.6650    -3.5830     4.2400 ca         1 EYN      -0.054000
     15 N25          7.2070    -4.1100     6.5380 ns         1 EYN      -0.010100
     16 C30          8.1450    -3.7210    -0.6950 c3         1 EYN      -0.118400
     17 C31          7.5040    -4.9970    -0.2140 c          1 EYN       0.561100
     18 C34          7.1320    -7.3990    -0.3810 c3         1 EYN       0.082300
     19 C4           2.0410    -1.2480    -0.7220 c3         1 EYN       0.036900
     20 C5           3.5380    -1.1670    -0.8700 ca         1 EYN      -0.121300
     21 C6           4.3580    -1.8680    -0.0050 ca         1 EYN      -0.100000
     22 O12          7.6440    -0.9370    -1.3030 os         1 EYN      -0.302900
     23 N16          6.5700    -2.4970     0.7400 n          1 EYN       0.048000
     24 C17          6.0900    -3.0270     1.8830 c          1 EYN       0.651700
     25 O18          4.8910    -3.0490     2.0860 o          1 EYN      -0.639100
     26 C23          7.5430    -4.0950     5.1760 ca         1 EYN      -0.160400
     27 C26          8.1820    -4.3160     7.4490 c          1 EYN       0.559500
     28 O27          7.9120    -4.3650     8.6310 o          1 EYN      -0.652500
     29 C28          9.6090    -4.4880     6.9920 c3         1 EYN       0.149400
     30 O29          9.6290    -5.1080     5.7040 os         1 EYN      -0.302900
     31 O32          6.7630    -4.9780     0.7450 o          1 EYN      -0.647100
     32 N33          7.7550    -6.1590    -0.8490 ns         1 EYN      -0.181900
     33 H1          -0.3610    -0.0390    -1.0210 hc         1 EYN       0.004033
     34 H2          -0.3610     0.9030     0.4770 hc         1 EYN       0.004033
     35 H3          -0.3610    -0.8640     0.5440 hc         1 EYN       0.004033
     36 H4           1.8910     0.8850    -0.5100 hc         1 EYN       0.030700
     37 H5           1.9480    -0.9960     1.8580 hc         1 EYN       0.004033
     38 H6           1.4530     0.6930     2.0330 hc         1 EYN       0.004033
     39 H7           3.0800     0.3030     1.4580 hc         1 EYN       0.004033
     40 H8           5.8970     0.2980    -2.8010 ha         1 EYN       0.129000
     41 H9           8.3670    -0.5270     0.5840 h1         1 EYN       0.024200
     42 H10          9.4940    -1.3650    -0.4990 h1         1 EYN       0.024200
     43 H11          8.5710    -2.8930     1.2500 h1         1 EYN       0.118700
     44 H12          8.5320    -4.0890     1.4430 ha         1 EYN       0.163000
     45 H13         10.0870    -4.9990     3.1190 ha         1 EYN       0.116000
     46 H14          5.7070    -3.1860     4.5530 ha         1 EYN       0.130000
     47 H15          6.3030    -3.8010     6.8340 hn         1 EYN       0.185500
     48 H16          7.6640    -3.3980    -1.6100 hc         1 EYN       0.048700
     49 H17          9.1980    -3.8940    -0.8830 hc         1 EYN       0.048700
     50 H18          7.3720    -8.2040    -1.0650 h1         1 EYN       0.014367
     51 H19          6.0570    -7.2690    -0.3380 h1         1 EYN       0.014367
     52 H20          7.5060    -7.6400     0.6070 h1         1 EYN       0.014367
     53 H21          1.5840    -1.3100    -1.7030 hc         1 EYN       0.025700
     54 H22          1.7820    -2.1290    -0.1470 hc         1 EYN       0.025700
     55 H23          3.9250    -2.4770     0.7800 ha         1 EYN       0.199000
     56 H24         10.0700    -3.5110     6.9160 h1         1 EYN       0.040200
     57 H25         10.1250    -5.1300     7.6960 h1         1 EYN       0.040200
     58 H26          8.3500    -6.1710    -1.6540 hn         1 EYN       0.171500
     59 F11          3.2890     0.2960    -2.7160 f          1 EYN      -0.128900
@<TRIPOS>BOND
     1     1     2 1   
     2     1    33 1   
     3     1    34 1   
     4     1    35 1   
     5     2     3 1   
     6     2    19 1   
     7     2    36 1   
     8     3    37 1   
     9     3    38 1   
    10     3    39 1   
    11     4     5 ar  
    12     4    21 ar  
    13     4    23 1   
    14     5     6 ar  
    15     5    22 1   
    16     6     7 ar  
    17     6    40 1   
    18     7    20 ar  
    19     7    59 1   
    20     8     9 1   
    21     8    22 1   
    22     8    41 1   
    23     8    42 1   
    24     9    16 1   
    25     9    23 1   
    26     9    43 1   
    27    10    11 ar  
    28    10    14 ar  
    29    10    24 1   
    30    11    12 ar  
    31    11    44 1   
    32    12    13 ar  
    33    12    45 1   
    34    13    26 ar  
    35    13    30 1   
    36    14    26 ar  
    37    14    46 1   
    38    15    26 1   
    39    15    27 1   
    40    15    47 1   
    41    16    17 1   
    42    16    48 1   
    43    16    49 1   
    44    17    31 2   
    45    17    32 1   
    46    18    32 1   
    47    18    50 1   
    48    18    51 1   
    49    18    52 1   
    50    19    20 1   
    51    19    53 1   
    52    19    54 1   
    53    20    21 ar  
    54    21    55 1   
    55    23    24 1   
    56    24    25 2   
    57    27    28 2   
    58    27    29 1   
    59    29    30 1   
    60    29    56 1   
    61    29    57 1   
    62    32    58 1   
@<TRIPOS>SUBSTRUCTURE
     1 EYN         1 TEMP              0 ****  ****    0 ROOT
