@<TRIPOS>MOLECULE
molecule
   59    62     1     0     0
SMALL
bcc


@<TRIPOS>ATOM
      1 C1           0.0000     0.0000     0.0000 c3         1 EYN      -0.088100
      2 C2           1.5300     0.0000     0.0000 c3         1 EYN      -0.073700
      3 C3           2.0400     0.0000     1.4420 c3         1 EYN      -0.088100
      4 C7           5.7340    -1.7920    -0.1430 ca         1 EYN      -0.015400
      5 C8           6.2960    -1.0130    -1.1510 ca         1 EYN       0.106100
      6 C9           5.4680    -0.3120    -2.0150 ca         1 EYN      -0.178000
      7 C10          4.0920    -0.3890    -1.8730 ca         1 EYN       0.135900
      8 C13          8.4600    -1.2860    -0.1830 c3         1 EYN       0.131400
      9 C14          7.9900    -2.6370     0.3730 c3         1 EYN       0.038700
     10 C19          7.0190    -3.5780     2.8890 ca         1 EYN      -0.105600
     11 C20          8.2570    -4.0920     2.4910 ca         1 EYN      -0.125000
     12 C21          9.1280    -4.6010     3.4290 ca         1 EYN      -0.136000
     13 C22          8.7770    -4.6070     4.7710 ca         1 EYN       0.106100
     14 C24          6.6650    -3.5830     4.2400 ca         1 EYN      -0.093000
     15 N25          7.2070    -4.1100     6.5380 ns         1 EYN      -0.457100
     16 C30          8.1450    -3.7210    -0.6950 c3         1 EYN      -0.180400
     17 C31          7.5040    -4.9970    -0.2140 c          1 EYN       0.654100
     18 C34          7.1320    -7.3990    -0.3810 c3         1 EYN       0.100300
     19 C4           2.0410    -1.2480    -0.7220 c3         1 EYN      -0.024100
     20 C5           3.5380    -1.1670    -0.8700 ca         1 EYN      -0.125300
     21 C6           4.3580    -1.8680    -0.0050 ca         1 EYN      -0.104000
     22 O12          7.6440    -0.9370    -1.3030 os         1 EYN      -0.327900
     23 N16          6.5700    -2.4970     0.7400 n          1 EYN      -0.361000
     24 C17          6.0900    -3.0270     1.8830 c          1 EYN       0.730700
     25 O18          4.8910    -3.0490     2.0860 o          1 EYN      -0.598100
     26 C23          7.5430    -4.0950     5.1760 ca         1 EYN      -0.007400
     27 C26          8.1820    -4.3160     7.4490 c          1 EYN       0.664500
     28 O27          7.9120    -4.3650     8.6310 o          1 EYN      -0.611500
     29 C28          9.6090    -4.4880     6.9920 c3         1 EYN       0.074400
     30 O29          9.6290    -5.1080     5.7040 os         1 EYN      -0.321900
     31 O32          6.7630    -4.9780     0.7450 o          1 EYN      -0.603100
     32 N33          7.7550    -6.1590    -0.8490 ns         1 EYN      -0.582900
     33 H1          -0.3610    -0.0390    -1.0210 hc         1 EYN       0.034700
     34 H2          -0.3610     0.9030     0.4770 hc         1 EYN       0.034700
     35 H3          -0.3610    -0.8640     0.5440 hc         1 EYN       0.034700
     36 H4           1.8910     0.8850    -0.5100 hc         1 EYN       0.054700
     37 H5           1.9480    -0.9960     1.8580 hc         1 EYN       0.034700
     38 H6           1.4530     0.6930     2.0330 hc         1 EYN       0.034700
     39 H7           3.0800     0.3030     1.4580 hc         1 EYN       0.034700
     40 H8           5.8970     0.2980    -2.8010 ha         1 EYN       0.156000
     41 H9           8.3670    -0.5270     0.5840 h1         1 EYN       0.067200
     42 H10          9.4940    -1.3650    -0.4990 h1         1 EYN       0.067200
     43 H11          8.5710    -2.8930     1.2500 h1         1 EYN       0.123700
     44 H12          8.5320    -4.0890     1.4430 ha         1 EYN       0.166000
     45 H13         10.0870    -4.9990     3.1190 ha         1 EYN       0.148000
     46 H14          5.7070    -3.1860     4.5530 ha         1 EYN       0.159000
     47 H15          6.3030    -3.8010     6.8340 hn         1 EYN       0.344500
     48 H16          7.6640    -3.3980    -1.6100 hc         1 EYN       0.080700
     49 H17          9.1980    -3.8940    -0.8830 hc         1 EYN       0.080700
     50 H18          7.3720    -8.2040    -1.0650 h1         1 EYN       0.046700
     51 H19          6.0570    -7.2690    -0.3380 h1         1 EYN       0.046700
     52 H20          7.5060    -7.6400     0.6070 h1         1 EYN       0.046700
     53 H21          1.5840    -1.3100    -1.7030 hc         1 EYN       0.054700
     54 H22          1.7820    -2.1290    -0.1470 hc         1 EYN       0.054700
     55 H23          3.9250    -2.4770     0.7800 ha         1 EYN       0.212000
     56 H24         10.0700    -3.5110     6.9160 h1         1 EYN       0.088700
     57 H25         10.1250    -5.1300     7.6960 h1         1 EYN       0.088700
     58 H26          8.3500    -6.1710    -1.6540 hn         1 EYN       0.314500
     59 F11          3.2890     0.2960    -2.7160 f          1 EYN      -0.139900
@<TRIPOS>BOND
     1    18    32 1
     2    32    17 1
     3    28    27 2
     4    25    24 2
     5    15    27 1
     6    15    26 1
     7    31    17 2
     8    27    29 1
     9    17    16 1
    10    14    26 ar
    11    14    10 ar
    12    26    13 ar
    13    24    10 1
    14    24    23 1
    15    10    11 ar
    16    16     9 1
    17     9    23 1
    18     9     8 1
    19    29    30 1
    20    23     4 1
    21    13    30 1
    22    13    12 ar
    23    11    12 ar
    24     8    22 1
    25     4    21 ar
    26     4     5 ar
    27    21    20 ar
    28    22     5 1
    29     5     6 ar
    30    20    19 1
    31    20     7 ar
    32    19     2 1
    33     2     3 1
    34     2     1 1
    35     6     7 ar
    36     7    59 1
    37     1    33 1
    38     1    34 1
    39     1    35 1
    40     2    36 1
    41     3    37 1
    42     3    38 1
    43     3    39 1
    44     6    40 1
    45     8    41 1
    46     8    42 1
    47     9    43 1
    48    11    44 1
    49    12    45 1
    50    14    46 1
    51    15    47 1
    52    16    48 1
    53    16    49 1
    54    18    50 1
    55    18    51 1
    56    18    52 1
    57    19    53 1
    58    19    54 1
    59    21    55 1
    60    29    56 1
    61    29    57 1
    62    32    58 1
@<TRIPOS>SUBSTRUCTURE
     1 EYN         1 TEMP              0 ****  ****    0 ROOT
