@<TRIPOS>MOLECULE
molecule
   32    34     1     0     0
SMALL
bcc


@<TRIPOS>ATOM
      1 O1           0.0000     0.0000     0.0000 o          1 EYP      -0.854800
      2 C1           2.0950    -0.0000    -1.3060 c3         1 EYP      -0.180400
      3 C2           3.5990     0.0000    -1.0270 c3         1 EYP      -0.080700
      4 C3           4.3520     0.0000    -2.3320 cc         1 EYP       0.482200
      5 C4           5.3910     0.8970    -4.1220 ca         1 EYP       0.131400
      6 C5           5.8890     1.8870    -4.9830 ca         1 EYP      -0.043000
      7 C6           6.5660     1.5450    -6.1620 ca         1 EYP       0.131400
      8 C7           7.6840     1.8320    -8.1010 cd         1 EYP       0.482200
      9 C8           8.3320     2.6020    -9.2220 c3         1 EYP      -0.080700
     10 C9           9.8020     2.8580    -8.8820 c3         1 EYP      -0.180400
     11 C10         10.4500     3.6280   -10.0030 c          1 EYP       0.893600
     12 O2          11.7460     3.9690    -9.9220 o          1 EYP      -0.854800
     13 O3           9.8030     3.9410   -10.9740 o          1 EYP      -0.854800
     14 N1           7.1040     2.3630    -7.0910 nc         1 EYP      -0.597600
     15 S            7.6180     0.0790    -7.9970 ss         1 EYP      -0.214100
     16 C11          6.7400     0.1890    -6.4730 ca         1 EYP      -0.047100
     17 C12          6.2500    -0.7950    -5.6260 ca         1 EYP      -0.056000
     18 C13          5.5800    -0.4500    -4.4600 ca         1 EYP      -0.047100
     19 N            4.7220     1.0520    -2.9600 nd         1 EYP      -0.597600
     20 S1           4.8530    -1.4440    -3.2000 ss         1 EYP      -0.214100
     21 C            1.3430     0.0000     0.0000 c          1 EYP       0.893600
     22 O            1.9470     0.0000     1.0460 o          1 EYP      -0.854800
     23 H2           1.8330    -0.8850    -1.8740 hc         1 EYP       0.041200
     24 H3           1.8330     0.8840    -1.8740 hc         1 EYP       0.041200
     25 H4           3.8610    -0.8840    -0.4580 hc         1 EYP       0.073700
     26 H5           3.8610     0.8850    -0.4590 hc         1 EYP       0.073700
     27 H6           5.7490     2.9310    -4.7320 ha         1 EYP       0.155000
     28 H7           7.8220     3.5490    -9.3530 hc         1 EYP       0.073700
     29 H8           8.2690     2.0280   -10.1390 hc         1 EYP       0.073700
     30 H9           9.8650     3.4320    -7.9650 hc         1 EYP       0.041200
     31 H10         10.3120     1.9120    -8.7510 hc         1 EYP       0.041200
     32 H12          6.3900    -1.8390    -5.8770 ha         1 EYP       0.130000
@<TRIPOS>BOND
     1     3     2 1
     2     3     4 1
     3    22    21 1
     4     2    21 1
     5    19     4 2
     6    19     5 1
     7     4    20 1
     8     6     5 ar
     9     6     7 ar
    10    21     1 1
    11     5    18 ar
    12    14     7 1
    13    14     8 2
    14     7    16 ar
    15    13    11 1
    16     9     8 1
    17     9    10 1
    18    20    18 1
    19     8    15 1
    20    18    17 ar
    21    16    17 ar
    22    16    15 1
    23    11    10 1
    24    11    12 1
    25     2    23 1
    26     2    24 1
    27     3    25 1
    28     3    26 1
    29     6    27 1
    30     9    28 1
    31     9    29 1
    32    10    30 1
    33    10    31 1
    34    17    32 1
@<TRIPOS>SUBSTRUCTURE
     1 EYP         1 TEMP              0 ****  ****    0 ROOT
