@<TRIPOS>MOLECULE
molecule
   19    20     1     0     0
SMALL
bcc


@<TRIPOS>ATOM
      1 C1           0.0000     0.0000     0.0000 c3         1 EYV      -0.209700
      2 C2           1.5080     0.0000     0.0000 cc         1 EYV       0.504200
      3 C3           3.5660    -0.0050    -0.9080 ca         1 EYV       0.152400
      4 C4           4.5800    -0.0050    -1.8850 ca         1 EYV      -0.089000
      5 C5           5.8920    -0.0040    -1.5180 ca         1 EYV      -0.138000
      6 C6           6.2540    -0.0000    -0.1770 ca         1 EYV      -0.157000
      7 C7           5.2840     0.0010     0.7980 ca         1 EYV      -0.080000
      8 C8           3.9370    -0.0000     0.4410 ca         1 EYV      -0.079100
      9 O1          -1.8210    -1.6670    -0.0010 o          1 EYV      -0.832800
     10 C           -0.5010    -1.4210    -0.0010 c          1 EYV       0.896600
     11 O            0.2830    -2.3400    -0.0010 o          1 EYV      -0.832800
     12 S            2.4680     0.0000     1.4110 ss         1 EYV      -0.131100
     13 N            2.2270    -0.0050    -1.0570 nd         1 EYV      -0.609100
     14 H1          -0.3610     0.5110    -0.8840 hc         1 EYV       0.059200
     15 H2          -0.3610     0.5100     0.8850 hc         1 EYV       0.059200
     16 H3           4.3150    -0.0080    -2.9350 ha         1 EYV       0.135000
     17 H4           6.6610    -0.0050    -2.2800 ha         1 EYV       0.116000
     18 H5           7.3010     0.0010     0.1000 ha         1 EYV       0.116000
     19 H6           5.5680     0.0040     1.8440 ha         1 EYV       0.121000
@<TRIPOS>BOND
     1     4     5 ar
     2     4     3 ar
     3     5     6 ar
     4    13     3 1
     5    13     2 2
     6     3     8 ar
     7    11    10 1
     8     6     7 ar
     9     2     1 1
    10     2    12 1
    11     1    10 1
    12     8     7 ar
    13     8    12 1
    14    10     9 1
    15     1    14 1
    16     1    15 1
    17     4    16 1
    18     5    17 1
    19     6    18 1
    20     7    19 1
@<TRIPOS>SUBSTRUCTURE
     1 EYV         1 TEMP              0 ****  ****    0 ROOT
