@<TRIPOS>MOLECULE
molecule
   45    47     1     0     0
SMALL
bcc


@<TRIPOS>ATOM
      1 C1           0.0000     0.0000     0.0000 c3         1 EYW       0.115700
      2 C2          -6.1640    -4.4320    -4.2980 c3         1 EYW       0.027400
      3 C3          -8.2880    -2.6510    -6.2290 c          1 EYW       0.819500
      4 C4          -7.6360    -4.2440    -4.7180 c3         1 EYW       0.092700
      5 C5          -7.9480    -4.9100    -6.0640 c3         1 EYW       0.091700
      6 C6          -6.7160    -5.6080    -6.6740 c3         1 EYW       0.012700
      7 C7          -5.6330    -3.1760    -3.6040 c3         1 EYW      -0.064400
      8 C9          -3.6860    -2.1810    -2.3960 c3         1 EYW      -0.066400
      9 C11         -1.7460    -1.2060    -1.1990 c          1 EYW       0.656100
     10 C12          1.5420     0.0000     0.0000 c3         1 EYW      -0.097400
     11 C15         -0.4040     0.0010     1.4900 c3         1 EYW       0.122800
     12 O3          -8.5680    -1.5650    -6.7000 o          1 EYW      -0.679500
     13 N1          -8.3490    -3.7910    -6.9310 ns         1 EYW      -0.596900
     14 N2          -7.8910    -2.8160    -4.9590 ns         1 EYW      -0.595900
     15 S1          -5.3150    -4.6970    -5.9070 ss         1 EYW      -0.345200
     16 C8          -4.2160    -3.4380    -3.0900 c3         1 EYW      -0.087400
     17 C10         -2.2690    -2.4440    -1.8810 c3         1 EYW      -0.157400
     18 O11         -2.4380    -0.2120    -1.1300 o          1 EYW      -0.614100
     19 N12         -0.5080    -1.2030    -0.6640 ns         1 EYW      -0.576900
     20 C13          1.9440     0.0000     1.4910 c3         1 EYW       0.134800
     21 N14          0.7670    -0.5810     2.1960 n7         1 EYW      -0.795200
     22 H1          -0.3730     0.8920    -0.4890 h1         1 EYW       0.083700
     23 H2          -6.0580    -5.3030    -3.6620 h1         1 EYW       0.076700
     24 H4          -8.7650    -5.6130    -5.9550 h1         1 EYW       0.066700
     25 H5          -6.6920    -6.6540    -6.3940 h1         1 EYW       0.080700
     26 H6          -6.7050    -5.4900    -7.7510 h1         1 EYW       0.080700
     27 H7          -6.2780    -2.9230    -2.7720 hc         1 EYW       0.060700
     28 H8          -5.6150    -2.3540    -4.3100 hc         1 EYW       0.060700
     29 H9          -4.3310    -1.9290    -1.5630 hc         1 EYW       0.060200
     30 H10         -3.6680    -1.3590    -3.1010 hc         1 EYW       0.060200
     31 H11          1.9170     0.8910    -0.4890 hc         1 EYW       0.054700
     32 H12          1.9170    -0.8910    -0.4890 hc         1 EYW       0.054700
     33 H13         -0.5840     1.0140     1.8300 h1         1 EYW       0.052200
     34 H14         -1.2810    -0.6170     1.6430 h1         1 EYW       0.052200
     35 H15         -8.6230    -3.8680    -7.8900 hn         1 EYW       0.361500
     36 H16         -7.7870    -2.0850    -4.2830 hn         1 EYW       0.365500
     37 H17         -3.5710    -3.6900    -3.9220 hc         1 EYW       0.047200
     38 H18         -4.2340    -4.2600    -2.3840 hc         1 EYW       0.047200
     39 H19         -1.6230    -2.6970    -2.7140 hc         1 EYW       0.060200
     40 H20         -2.2870    -3.2650    -1.1750 hc         1 EYW       0.060200
     41 H21          0.0710    -2.0160    -0.7380 hn         1 EYW       0.318500
     42 H22          2.8180    -0.6200     1.6450 h1         1 EYW       0.041700
     43 H23          2.1250     1.0120     1.8320 h1         1 EYW       0.041700
     44 H24          0.7660    -0.2780     3.1490 hn         1 EYW       0.347800
     45 H3          -8.2990    -4.6200    -3.9490 h1         1 EYW       0.067700
@<TRIPOS>BOND
     1    20    21 1
     2    20    10 1
     3    21    11 1
     4    10     1 1
     5    11     1 1
     6     1    19 1
     7    19     9 1
     8    18     9 2
     9     9    17 1
    10    17     8 1
    11     8    16 1
    12    16     7 1
    13     7     2 1
    14     2     4 1
    15     2    15 1
    16     4     5 1
    17     4    14 1
    18     6    15 1
    19     6     5 1
    20     5    13 1
    21    14     3 1
    22    13     3 1
    23     3    12 2
    24     1    22 1
    25     2    23 1
    26     4    45 1
    27     5    24 1
    28     6    25 1
    29     6    26 1
    30     7    27 1
    31     7    28 1
    32     8    29 1
    33     8    30 1
    34    10    31 1
    35    10    32 1
    36    11    33 1
    37    11    34 1
    38    13    35 1
    39    14    36 1
    40    16    37 1
    41    16    38 1
    42    17    39 1
    43    17    40 1
    44    19    41 1
    45    20    42 1
    46    20    43 1
    47    21    44 1
@<TRIPOS>SUBSTRUCTURE
     1 EYW         1 TEMP              0 ****  ****    0 ROOT
