@<TRIPOS>MOLECULE
EYW
   45    47     1     0     0
SMALL
bcc


@<TRIPOS>ATOM
      1 C1           0.0000     0.0000     0.0000 c3         1 EYW       0.018700
      2 C2          -6.1640    -4.4320    -4.2980 c3         1 EYW       0.065400
      3 C3          -8.2880    -2.6510    -6.2290 c          1 EYW       0.622500
      4 C4          -7.6360    -4.2440    -4.7180 c3         1 EYW       0.009700
      5 C5          -7.9480    -4.9100    -6.0640 c3         1 EYW       0.007700
      6 C6          -6.7160    -5.6080    -6.6740 c3         1 EYW       0.087700
      7 C7          -5.6330    -3.1760    -3.6040 c3         1 EYW      -0.016400
      8 C9          -3.6860    -2.1810    -2.3960 c3         1 EYW      -0.013400
      9 C11         -1.7460    -1.2060    -1.1990 c          1 EYW       0.571100
     10 C12          1.5420     0.0000     0.0000 c3         1 EYW      -0.037400
     11 C15         -0.4040     0.0010     1.4900 c3         1 EYW       0.127800
     12 O3          -8.5680    -1.5650    -6.7000 o          1 EYW      -0.723500
     13 N1          -8.3490    -3.7910    -6.9310 ns         1 EYW      -0.211900
     14 N2          -7.8910    -2.8160    -4.9590 ns         1 EYW      -0.216900
     15 S1          -5.3150    -4.6970    -5.9070 ss         1 EYW      -0.397200
     16 C8          -4.2160    -3.4380    -3.0900 c3         1 EYW      -0.036400
     17 C10         -2.2690    -2.4440    -1.8810 c3         1 EYW      -0.097400
     18 O11         -2.4380    -0.2120    -1.1300 o          1 EYW      -0.652100
     19 N12         -0.5080    -1.2030    -0.6640 ns         1 EYW      -0.186900
     20 C13          1.9440     0.0000     1.4910 c3         1 EYW       0.143800
     21 N14          0.7670    -0.5810     2.1960 n7         1 EYW      -0.589200
     22 H1          -0.3730     0.8920    -0.4890 h1         1 EYW       0.059700
     23 H2          -6.0580    -5.3030    -3.6620 h1         1 EYW       0.058700
     24 H4          -8.7650    -5.6130    -5.9550 h1         1 EYW       0.037700
     25 H5          -6.6920    -6.6540    -6.3940 h1         1 EYW       0.054700
     26 H6          -6.7050    -5.4900    -7.7510 h1         1 EYW       0.054700
     27 H7          -6.2780    -2.9230    -2.7720 hc         1 EYW       0.034200
     28 H8          -5.6150    -2.3540    -4.3100 hc         1 EYW       0.034200
     29 H9          -4.3310    -1.9290    -1.5630 hc         1 EYW       0.031700
     30 H10         -3.6680    -1.3590    -3.1010 hc         1 EYW       0.031700
     31 H11          1.9170     0.8910    -0.4890 hc         1 EYW       0.024200
     32 H12          1.9170    -0.8910    -0.4890 hc         1 EYW       0.024200
     33 H13         -0.5840     1.0140     1.8300 h1         1 EYW       0.022200
     34 H14         -1.2810    -0.6170     1.6430 h1         1 EYW       0.022200
     35 H15         -8.6230    -3.8680    -7.8900 hn         1 EYW       0.214500
     36 H16         -7.7870    -2.0850    -4.2830 hn         1 EYW       0.222500
     37 H17         -3.5710    -3.6900    -3.9220 hc         1 EYW       0.021700
     38 H18         -4.2340    -4.2600    -2.3840 hc         1 EYW       0.021700
     39 H19         -1.6230    -2.6970    -2.7140 hc         1 EYW       0.028200
     40 H20         -2.2870    -3.2650    -1.1750 hc         1 EYW       0.028200
     41 H21          0.0710    -2.0160    -0.7380 hn         1 EYW       0.178500
     42 H22          2.8180    -0.6200     1.6450 h1         1 EYW       0.011700
     43 H23          2.1250     1.0120     1.8320 h1         1 EYW       0.011700
     44 H24          0.7660    -0.2780     3.1490 hn         1 EYW       0.255800
     45 H3          -8.2990    -4.6200    -3.9490 h1         1 EYW       0.039700
@<TRIPOS>BOND
     1     1    10 1   
     2     1    11 1   
     3     1    19 1   
     4     1    22 1   
     5     2     4 1   
     6     2     7 1   
     7     2    15 1   
     8     2    23 1   
     9     3    12 2   
    10     3    13 1   
    11     3    14 1   
    12     4     5 1   
    13     4    14 1   
    14     4    45 1   
    15     5     6 1   
    16     5    13 1   
    17     5    24 1   
    18     6    15 1   
    19     6    25 1   
    20     6    26 1   
    21     7    16 1   
    22     7    27 1   
    23     7    28 1   
    24     8    16 1   
    25     8    17 1   
    26     8    29 1   
    27     8    30 1   
    28     9    17 1   
    29     9    18 2   
    30     9    19 1   
    31    10    20 1   
    32    10    31 1   
    33    10    32 1   
    34    11    21 1   
    35    11    33 1   
    36    11    34 1   
    37    13    35 1   
    38    14    36 1   
    39    16    37 1   
    40    16    38 1   
    41    17    39 1   
    42    17    40 1   
    43    19    41 1   
    44    20    21 1   
    45    20    42 1   
    46    20    43 1   
    47    21    44 1   
@<TRIPOS>SUBSTRUCTURE
     1 EYW         1 TEMP              0 ****  ****    0 ROOT
