@<TRIPOS>MOLECULE
molecule
   25    26     1     0     0
SMALL
bcc


@<TRIPOS>ATOM
      1 C1           0.0000     0.0000     0.0000 c3         1 EYY      -0.177400
      2 O1          -1.8220     0.0000    -1.6670 o          1 EYY      -0.855800
      3 C2           1.5290     0.0000     0.0000 c3         1 EYY      -0.119700
      4 C3           2.0320     0.0000     1.4210 ca         1 EYY       0.463600
      5 C4           2.9160    -0.9970     1.8280 ca         1 EYY      -0.244300
      6 C5           3.3810    -1.0120     3.1120 ca         1 EYY      -0.097000
      7 C6           2.9430    -0.0030     3.9900 ca         1 EYY      -0.162300
      8 C7           3.3800     0.0460     5.3240 ca         1 EYY      -0.109000
      9 C8           2.9330     1.0380     6.1410 ca         1 EYY      -0.160000
     10 C9           2.0470     2.0070     5.6720 ca         1 EYY      -0.145000
     11 C10          1.6050     1.9900     4.3850 ca         1 EYY      -0.155300
     12 C11          2.0430     0.9820     3.5100 ca         1 EYY       0.436600
     13 C           -0.5020     0.0000    -1.4210 c          1 EYY       0.890600
     14 O            0.2840     0.0000    -2.3400 o          1 EYY      -0.855800
     15 N            1.6290     0.9420     2.2400 nb         1 EYY      -0.681000
     16 H1          -0.3610     0.8840     0.5110 hc         1 EYY       0.040200
     17 H2          -0.3610    -0.8850     0.5100 hc         1 EYY       0.040200
     18 H4           1.8910     0.8840    -0.5110 hc         1 EYY       0.064200
     19 H5           1.8900    -0.8850    -0.5100 hc         1 EYY       0.064200
     20 H6           3.2700    -1.7300     1.1150 ha         1 EYY       0.139000
     21 H7           4.0690    -1.7790     3.4450 ha         1 EYY       0.126000
     22 H8           4.0640    -0.6240     5.8310 ha         1 EYY       0.121000
     23 H9           3.2510     1.1060     7.1740 ha         1 EYY       0.114000
     24 H10          1.7320     2.7710     6.3730 ha         1 EYY       0.119000
     25 H11          0.9380     2.8100     4.1480 ha         1 EYY       0.144000
@<TRIPOS>BOND
     1    11    10 ar
     2    11    12 ar
     3    10     9 ar
     4    15    12 ar
     5    15     4 ar
     6    12     7 ar
     7     3     4 1
     8     3     1 1
     9     9     8 ar
    10    14    13 1
    11     4     5 ar
    12     7     8 ar
    13     7     6 ar
    14     1    13 1
    15    13     2 1
    16     5     6 ar
    17     1    16 1
    18     1    17 1
    19     3    18 1
    20     3    19 1
    21     5    20 1
    22     6    21 1
    23     8    22 1
    24     9    23 1
    25    10    24 1
    26    11    25 1
@<TRIPOS>SUBSTRUCTURE
     1 EYY         1 TEMP              0 ****  ****    0 ROOT
