@<TRIPOS>MOLECULE
molecule
   45    45     1     0     0
SMALL
bcc


@<TRIPOS>ATOM
      1 O            0.0000     0.0000     0.0000 o          1 EYZ      -0.776800
      2 C            1.2090     0.0000     0.0000 c          1 EYZ       0.868600
      3 CA           1.9630     0.0000     1.3040 c3         1 EYZ      -0.030500
      4 N            1.0820     0.4730     2.3790 nz         1 EYZ      -0.860600
      5 CB           2.4350    -1.4210     1.6200 c3         1 EYZ      -0.094400
      6 CAD          3.3060    -1.4010     2.8770 c3         1 EYZ      -0.097400
      7 CAE          3.7790    -2.8210     3.1930 c3         1 EYZ      -0.100400
      8 CAF          4.6500    -2.8010     4.4510 c3         1 EYZ       0.115000
      9 NAG          5.1020    -4.1620     4.7530 ns         1 EYZ      -0.602900
     10 CAL          5.8870    -4.3880     5.8250 c          1 EYZ       0.642100
     11 OAK          6.2190    -3.4660     6.5390 o          1 EYZ      -0.599100
     12 CAJ          6.3530    -5.7880     6.1360 c3         1 EYZ      -0.118400
     13 CAM          7.2240    -5.7680     7.3940 c3         1 EYZ      -0.072600
     14 CAN          7.7890    -7.1430     7.6350 c          1 EYZ       0.887600
     15 OAP          6.9650    -8.1970     7.7530 o          1 EYZ      -0.824800
     16 OAO          8.9830    -7.2980     7.7240 o          1 EYZ      -0.824800
     17 SAQ          6.2160    -5.2690     8.8180 ss         1 EYZ      -0.250000
     18 CAR          7.4180    -5.0020    10.0790 ca         1 EYZ       0.071900
     19 CAS          7.0140    -4.7340    11.3810 ca         1 EYZ      -0.126000
     20 CAT          7.9590    -4.5250    12.3670 ca         1 EYZ      -0.125000
     21 CAU          9.3060    -4.5820    12.0590 ca         1 EYZ      -0.165000
     22 CAV          9.7120    -4.8480    10.7630 ca         1 EYZ      -0.125000
     23 CAW          8.7730    -5.0640     9.7740 ca         1 EYZ      -0.126000
     24 H2           2.8210     0.6570     1.2340 hx         1 EYZ       0.098700
     25 H3           1.8050     1.1610     2.3090 hn         1 EYZ       0.464467
     26 H4           0.1900     0.8060     2.0690 hn         1 EYZ       0.464467
     27 H6           1.5890    -2.0790     1.7760 hc         1 EYZ       0.089200
     28 H7           3.0140    -1.7800     0.7770 hc         1 EYZ       0.089200
     29 H8           2.7050    -1.0310     3.6990 hc         1 EYZ       0.030200
     30 H9           4.1670    -0.7560     2.7450 hc         1 EYZ       0.030200
     31 H10          4.3450    -3.2230     2.3620 hc         1 EYZ       0.055200
     32 H11          2.9030    -3.4200     3.4130 hc         1 EYZ       0.055200
     33 H12          5.4970    -2.1490     4.2760 h1         1 EYZ       0.045200
     34 H13          4.0460    -2.4260     5.2690 h1         1 EYZ       0.045200
     35 H14          4.8750    -4.9160     4.1350 hn         1 EYZ       0.312500
     36 H15          6.9230    -6.1830     5.3040 hc         1 EYZ       0.083200
     37 H16          5.4760    -6.3740     6.3830 hc         1 EYZ       0.083200
     38 H17          8.0290    -5.0550     7.2630 h1         1 EYZ       0.069700
     39 H19          5.9590    -4.6890    11.6230 ha         1 EYZ       0.149000
     40 H20          7.6430    -4.3120    13.3810 ha         1 EYZ       0.114000
     41 H21         10.0480    -4.4060    12.8280 ha         1 EYZ       0.106000
     42 H22         10.7670    -4.9280    10.5310 ha         1 EYZ       0.114000
     43 H23          9.0930    -5.2650     8.7590 ha         1 EYZ       0.149000
     44 O1           1.8790     0.0110    -1.1630 o          1 EYZ      -0.776800
     45 HN3          1.0750    -0.0680     3.2210 hn         1 EYZ       0.464467
@<TRIPOS>BOND
     1     1     2 1
     2     2     3 1
     3     3     4 1
     4     3     5 1
     5     5     6 1
     6     6     7 1
     7     7     8 1
     8     8     9 1
     9     9    10 1
    10    10    11 2
    11    10    12 1
    12    12    13 1
    13    13    14 1
    14    13    17 1
    15    14    15 1
    16    14    16 1
    17    17    18 1
    18    18    19 ar
    19    18    23 ar
    20    19    20 ar
    21    20    21 ar
    22    21    22 ar
    23    22    23 ar
    24     3    24 1
    25     4    25 1
    26     4    26 1
    27     5    27 1
    28     5    28 1
    29     6    29 1
    30     6    30 1
    31     7    31 1
    32     7    32 1
    33     8    33 1
    34     8    34 1
    35     9    35 1
    36    12    36 1
    37    12    37 1
    38    13    38 1
    39    19    39 1
    40    20    40 1
    41    21    41 1
    42    22    42 1
    43    23    43 1
    44     2    44 1
    45    45     4 1
@<TRIPOS>SUBSTRUCTURE
     1 EYZ         1 TEMP              0 ****  ****    0 ROOT
