@<TRIPOS>MOLECULE
EYZ
   45    45     1     0     0
SMALL
bcc


@<TRIPOS>ATOM
      1 O            0.0000     0.0000     0.0000 o          1 EYZ      -0.818800
      2 C            1.2090     0.0000     0.0000 c          1 EYZ       0.953600
      3 CA           1.9630     0.0000     1.3040 c3         1 EYZ      -0.179500
      4 N            1.0820     0.4730     2.3790 nz         1 EYZ      -0.049600
      5 CB           2.4350    -1.4210     1.6200 c3         1 EYZ      -0.034400
      6 CAD          3.3060    -1.4010     2.8770 c3         1 EYZ      -0.038400
      7 CAE          3.7790    -2.8210     3.1930 c3         1 EYZ      -0.040400
      8 CAF          4.6500    -2.8010     4.4510 c3         1 EYZ       0.056000
      9 NAG          5.1020    -4.1620     4.7530 ns         1 EYZ      -0.227900
     10 CAL          5.8870    -4.3880     5.8250 c          1 EYZ       0.560100
     11 OAK          6.2190    -3.4660     6.5390 o          1 EYZ      -0.631100
     12 CAJ          6.3530    -5.7880     6.1360 c3         1 EYZ      -0.057400
     13 CAM          7.2240    -5.7680     7.3940 c3         1 EYZ      -0.020600
     14 CAN          7.7890    -7.1430     7.6350 c          1 EYZ       0.972600
     15 OAP          6.9650    -8.1970     7.7530 o          1 EYZ      -0.869300
     16 OAO          8.9830    -7.2980     7.7240 o          1 EYZ      -0.869300
     17 SAQ          6.2160    -5.2690     8.8180 ss         1 EYZ      -0.347000
     18 CAR          7.4180    -5.0020    10.0790 ca         1 EYZ       0.101900
     19 CAS          7.0140    -4.7340    11.3810 ca         1 EYZ      -0.102500
     20 CAT          7.9590    -4.5250    12.3670 ca         1 EYZ      -0.102500
     21 CAU          9.3060    -4.5820    12.0590 ca         1 EYZ      -0.139000
     22 CAV          9.7120    -4.8480    10.7630 ca         1 EYZ      -0.102500
     23 CAW          8.7730    -5.0640     9.7740 ca         1 EYZ      -0.102500
     24 H2           2.8210     0.6570     1.2340 hx         1 EYZ       0.085700
     25 H3           1.8050     1.1610     2.3090 hn         1 EYZ       0.248467
     26 H4           0.1900     0.8060     2.0690 hn         1 EYZ       0.248467
     27 H6           1.5890    -2.0790     1.7760 hc         1 EYZ       0.055700
     28 H7           3.0140    -1.7800     0.7770 hc         1 EYZ       0.055700
     29 H8           2.7050    -1.0310     3.6990 hc         1 EYZ       0.005200
     30 H9           4.1670    -0.7560     2.7450 hc         1 EYZ       0.005200
     31 H10          4.3450    -3.2230     2.3620 hc         1 EYZ       0.026200
     32 H11          2.9030    -3.4200     3.4130 hc         1 EYZ       0.026200
     33 H12          5.4970    -2.1490     4.2760 h1         1 EYZ       0.018700
     34 H13          4.0460    -2.4260     5.2690 h1         1 EYZ       0.018700
     35 H14          4.8750    -4.9160     4.1350 hn         1 EYZ       0.176500
     36 H15          6.9230    -6.1830     5.3040 hc         1 EYZ       0.051200
     37 H16          5.4760    -6.3740     6.3830 hc         1 EYZ       0.051200
     38 H17          8.0290    -5.0550     7.2630 h1         1 EYZ       0.055700
     39 H19          5.9590    -4.6890    11.6230 ha         1 EYZ       0.132500
     40 H20          7.6430    -4.3120    13.3810 ha         1 EYZ       0.090000
     41 H21         10.0480    -4.4060    12.8280 ha         1 EYZ       0.085000
     42 H22         10.7670    -4.9280    10.5310 ha         1 EYZ       0.090000
     43 H23          9.0930    -5.2650     8.7590 ha         1 EYZ       0.132500
     44 O1           1.8790     0.0110    -1.1630 o          1 EYZ      -0.818800
     45 HN3          1.0750    -0.0680     3.2210 hn         1 EYZ       0.248467
@<TRIPOS>BOND
     1     1     2 1   
     2     2     3 1   
     3     2    44 1   
     4     3     4 1   
     5     3     5 1   
     6     3    24 1   
     7     4    25 1   
     8     4    26 1   
     9     4    45 1   
    10     5     6 1   
    11     5    27 1   
    12     5    28 1   
    13     6     7 1   
    14     6    29 1   
    15     6    30 1   
    16     7     8 1   
    17     7    31 1   
    18     7    32 1   
    19     8     9 1   
    20     8    33 1   
    21     8    34 1   
    22     9    10 1   
    23     9    35 1   
    24    10    11 2   
    25    10    12 1   
    26    12    13 1   
    27    12    36 1   
    28    12    37 1   
    29    13    14 1   
    30    13    17 1   
    31    13    38 1   
    32    14    15 1   
    33    14    16 1   
    34    17    18 1   
    35    18    19 ar  
    36    18    23 ar  
    37    19    20 ar  
    38    19    39 1   
    39    20    21 ar  
    40    20    40 1   
    41    21    22 ar  
    42    21    41 1   
    43    22    23 ar  
    44    22    42 1   
    45    23    43 1   
@<TRIPOS>SUBSTRUCTURE
     1 EYZ         1 TEMP              0 ****  ****    0 ROOT
