@<TRIPOS>MOLECULE
molecule
   26    26     1     0     0
SMALL
bcc


@<TRIPOS>ATOM
      1 C7           0.0000     0.0000     0.0000 ca         1 EZ1      -0.035000
      2 C13          0.0010    -0.0050     2.3950 ca         1 EZ1      -0.035000
      3 C6           1.3830     0.0000     0.0000 ca         1 EZ1      -0.104000
      4 C14          1.3840     0.0010     2.3950 ca         1 EZ1      -0.104000
      5 C8          -0.6910     0.0010     1.1970 ca         1 EZ1      -0.337500
      6 C5           2.0740     0.0000     1.1980 ca         1 EZ1       0.171900
      7 C1           6.4620    -2.8660     2.1330 c2         1 EZ1      -0.173000
      8 C2           5.9070    -2.1310     1.2020 c2         1 EZ1      -0.191200
      9 C3           4.4150    -1.9150     1.2020 c3         1 EZ1       0.115900
     10 N11         -2.9500    -1.5710     1.1950 nz         1 EZ1      -0.806500
     11 O10         -2.8510     0.5520     2.4490 o          1 EZ1      -0.516300
     12 O12         -2.8510     0.5570    -0.0500 o          1 EZ1      -0.516300
     13 S9          -2.4530     0.0090     1.1980 sy         1 EZ1       1.226200
     14 SE4          4.0340     0.0080     1.1970 ss         1 EZ1      -0.364000
     15 H1          -0.5420     0.0020    -0.9380 ha         1 EZ1       0.158000
     16 H2          -0.5400    -0.0040     3.3330 ha         1 EZ1       0.158000
     17 H3           1.9250    -0.0010    -0.9380 ha         1 EZ1       0.177000
     18 H4           1.9260    -0.0020     3.3330 ha         1 EZ1       0.177000
     19 H5           7.5340    -3.0210     2.1330 ha         1 EZ1       0.124000
     20 H6           5.8490    -3.3200     2.9020 ha         1 EZ1       0.124000
     21 H7           6.5210    -1.6770     0.4330 ha         1 EZ1       0.147000
     22 H8           3.9850    -2.3710     0.3180 h1         1 EZ1       0.062700
     23 H9           3.9850    -2.3660     2.0870 h1         1 EZ1       0.062700
     24 H10         -2.6000    -2.0290     0.3770 hn         1 EZ1       0.491800
     25 H11         -2.6010    -2.0330     2.0110 hn         1 EZ1       0.491800
     26 H113        -3.9500    -1.6060     1.1940 hn         1 EZ1       0.491800
@<TRIPOS>BOND
     1    14     9 1
     2    14     6 1
     3     9     8 1
     4     6     4 ar
     5     6     3 ar
     6     4     2 ar
     7     7     8 2
     8     3     1 ar
     9     2     5 ar
    10     1     5 ar
    11     5    13 1
    12    10    13 1
    13    12    13 2
    14    13    11 2
    15     1    15 1
    16     2    16 1
    17     3    17 1
    18     4    18 1
    19     7    19 1
    20     7    20 1
    21     8    21 1
    22     9    22 1
    23     9    23 1
    24    10    24 1
    25    10    25 1
    26    26    10 1
@<TRIPOS>SUBSTRUCTURE
     1 EZ1         1 TEMP              0 ****  ****    0 ROOT
