@<TRIPOS>MOLECULE
molecule
   21    20     1     0     0
SMALL
bcc


@<TRIPOS>ATOM
      1 OAA          0.0000     0.0000     0.0000 oh         1 EZ4      -0.584800
      2 OAB          3.3680    -0.0010     1.4430 oh         1 EZ4      -0.612800
      3 OAC          1.1590     0.4180    -4.1300 o          1 EZ4      -0.056700
      4 NAD          1.6440     0.3670    -3.0130 n2         1 EZ4       0.020700
      5 CAE          1.3390     1.3120    -2.1030 c          1 EZ4       0.410100
      6 CAF          1.9400     1.2480    -0.7220 c3         1 EZ4       0.084100
      7 CAG          1.4290     0.0000     0.0000 c3         1 EZ4       0.162100
      8 CAH          1.9390     0.0000     1.4430 c3         1 EZ4       0.143100
      9 CAI          1.4280    -1.2490     2.1640 c3         1 EZ4       0.113400
     10 OAJ          1.8060    -1.1910     3.5410 oh         1 EZ4      -0.612800
     11 OAK          0.5850     2.2100    -2.3930 o          1 EZ4      -0.440100
     12 OAL          1.5620     2.4130     0.0160 oh         1 EZ4      -0.564800
     13 HOAA        -0.3140    -0.7500    -0.4770 ho         1 EZ4       0.406000
     14 HOAB         3.6820     0.4320     2.2190 ho         1 EZ4       0.423000
     15 HAF          3.0190     1.2050    -0.7990 h1         1 EZ4       0.081700
     16 HAG          1.7900    -0.8850    -0.5100 h1         1 EZ4       0.061700
     17 HAH          1.5790     0.8850     1.9530 h1         1 EZ4       0.078700
     18 HAI          1.8600    -2.1320     1.7080 h1         1 EZ4       0.033200
     19 HAIA         0.3480    -1.2940     2.0880 h1         1 EZ4       0.033200
     20 HOAJ         1.4410    -1.9300     3.9980 ho         1 EZ4       0.408000
     21 HOAL         2.1240     3.1320    -0.2220 ho         1 EZ4       0.410000
@<TRIPOS>BOND
     1     7     1 1
     2     1    13 1
     3     2     8 1
     4     2    14 1
     5     3     4 2
     6     5     4 1
     7    11     5 2
     8     5     6 1
     9     7     6 1
    10     6    12 1
    11     6    15 1
    12     8     7 1
    13     7    16 1
    14     9     8 1
    15     8    17 1
    16    10     9 1
    17     9    18 1
    18     9    19 1
    19    10    20 1
    20    12    21 1
@<TRIPOS>SUBSTRUCTURE
     1 EZ4         1 TEMP              0 ****  ****    0 ROOT
