@<TRIPOS>MOLECULE
EZB
   35    38     1     0     0
SMALL
bcc


@<TRIPOS>ATOM
      1 C01          0.0000     0.0000     0.0000 c3         1 EZB       0.024200
      2 C02          1.5070     0.0000     0.0000 ca         1 EZB       0.015700
      3 C03          2.2110     0.0000     1.2000 cp         1 EZB      -0.070000
      4 C04          3.6110     0.0000     1.1960 ca         1 EZB      -0.047000
      5 C05          4.3080     0.0000     0.0240 ca         1 EZB      -0.104000
      6 C06          3.6240    -0.0010    -1.1950 ca         1 EZB       0.156400
      7 C07          2.2090    -0.0060    -1.2010 ca         1 EZB      -0.217600
      8 C08          1.5240    -0.0070    -2.5030 c          1 EZB       0.618100
      9 C10          3.6520     0.0020    -3.5140 cc         1 EZB       0.329800
     10 C13          1.4760     0.0000     2.4850 cp         1 EZB      -0.011000
     11 C14          1.5630     1.0870     3.3400 ca         1 EZB      -0.089000
     12 C15          0.8750     1.0910     4.5480 ca         1 EZB      -0.096000
     13 C16          0.1010     0.0350     4.9240 ca         1 EZB      -0.138300
     14 C17         -0.0170    -1.0880     4.0860 ca         1 EZB       0.372600
     15 C18          0.6740    -1.1050     2.8500 ca         1 EZB      -0.137300
     16 C19          0.5500    -2.2270     2.0140 ca         1 EZB      -0.062000
     17 C20         -0.2430    -3.2580     2.4320 ca         1 EZB      -0.223300
     18 C21         -0.9000    -3.1770     3.6580 ca         1 EZB       0.411200
     19 N09          2.2970    -0.0030    -3.6130 ns         1 EZB      -0.018400
     20 N11          4.2850    -0.0080    -2.3790 nd         1 EZB      -0.538100
     21 N22         -0.7730    -2.1320     4.4400 nb         1 EZB      -0.569000
     22 O12          0.3090    -0.0130    -2.5780 o          1 EZB      -0.664500
     23 H011        -0.3610    -0.9440    -0.3910 hc         1 EZB       0.030367
     24 H013        -0.3610     0.8100    -0.6220 hc         1 EZB       0.030367
     25 H012        -0.3610     0.1340     1.0130 hc         1 EZB       0.030367
     26 H041         4.1480     0.0000     2.1370 ha         1 EZB       0.110000
     27 H051         5.3910     0.0010     0.0370 ha         1 EZB       0.122000
     28 H101         4.2340     0.0050    -4.4270 h5         1 EZB       0.003800
     29 H141         2.1720     1.9400     3.0650 ha         1 EZB       0.110000
     30 H151         0.9560     1.9510     5.2030 ha         1 EZB       0.104000
     31 H161        -0.4260     0.0610     5.8710 ha         1 EZB       0.118000
     32 H191         1.0680    -2.2730     1.0640 ha         1 EZB       0.124000
     33 H201        -0.3680    -4.1340     1.8070 ha         1 EZB       0.112000
     34 H211        -1.5260    -4.0020     3.9760 h4         1 EZB      -0.022900
     35 H091         1.8660     0.0050    -4.5170 hn         1 EZB       0.182500
@<TRIPOS>BOND
     1     1     2 1   
     2     1    23 1   
     3     1    24 1   
     4     1    25 1   
     5     2     3 ar  
     6     2     7 ar  
     7     3     4 ar  
     8     3    10 1   
     9     4     5 ar  
    10     4    26 1   
    11     5     6 ar  
    12     5    27 1   
    13     6     7 ar  
    14     6    20 1   
    15     7     8 1   
    16     8    19 1   
    17     8    22 2   
    18     9    19 1   
    19     9    20 2   
    20     9    28 1   
    21    10    11 ar  
    22    10    15 ar  
    23    11    12 ar  
    24    11    29 1   
    25    12    13 ar  
    26    12    30 1   
    27    13    14 ar  
    28    13    31 1   
    29    14    15 ar  
    30    14    21 ar  
    31    15    16 ar  
    32    16    17 ar  
    33    16    32 1   
    34    17    18 ar  
    35    17    33 1   
    36    18    21 ar  
    37    18    34 1   
    38    19    35 1   
@<TRIPOS>SUBSTRUCTURE
     1 EZB         1 TEMP              0 ****  ****    0 ROOT
