@<TRIPOS>MOLECULE
molecule
   30    31     1     0     0
SMALL
bcc


@<TRIPOS>ATOM
      1 C4           0.0000     0.0000     0.0000 ca         1 EZE      -0.089000
      2 C5           1.3980     0.0000     0.0000 ca         1 EZE      -0.086800
      3 C6           2.1360     0.0000    -1.2740 ce         1 EZE      -0.088200
      4 C7           1.4670     0.0010    -2.4380 cf         1 EZE      -0.123200
      5 C8           2.2070     0.0020    -3.7120 ca         1 EZE      -0.027800
      6 C10          2.2140     0.0020    -6.1200 ca         1 EZE       0.120100
      7 C13          4.2940    -0.0090    -4.9130 ca         1 EZE       0.120100
      8 C15          3.6040    -0.0040    -3.7120 ca         1 EZE      -0.155000
      9 O1          -0.6820    -0.0050     3.5730 oh         1 EZE      -0.522100
     10 C2           0.0030    -0.0060     2.4000 ca         1 EZE       0.132100
     11 C3          -0.6880     0.0000     1.1940 ca         1 EZE      -0.168000
     12 C9           1.5140     0.0020    -4.9260 ca         1 EZE      -0.155000
     13 O11          1.5400     0.0030    -7.3010 oh         1 EZE      -0.519100
     14 C12          3.6010     0.0030    -6.1140 ca         1 EZE      -0.182000
     15 O14          5.6530    -0.0090    -4.9130 oh         1 EZE      -0.519100
     16 C16          2.0930     0.0000     1.2180 ca         1 EZE       0.141100
     17 O17          3.4510     0.0010     1.2270 oh         1 EZE      -0.510100
     18 C18          1.3910     0.0000     2.4110 ca         1 EZE      -0.212000
     19 H21         -0.5420     0.0050    -0.9380 ha         1 EZE       0.142000
     20 H22          3.2190    -0.0000    -1.2710 ha         1 EZE       0.149000
     21 H23          0.3840     0.0020    -2.4410 ha         1 EZE       0.133000
     22 H28          4.1460    -0.0140    -2.7740 ha         1 EZE       0.146000
     23 H19         -0.8040     0.8840     3.8650 ho         1 EZE       0.424000
     24 H20         -1.7710     0.0000     1.1920 ha         1 EZE       0.144000
     25 H24          0.4320     0.0670    -4.9310 ha         1 EZE       0.146000
     26 H25          1.3770    -0.8860    -7.5700 ho         1 EZE       0.420000
     27 H26          4.1450     0.0010    -7.0510 ha         1 EZE       0.150000
     28 H27          5.9680    -0.8940    -4.9910 ho         1 EZE       0.420000
     29 H29          3.7620    -0.7330     1.7300 ho         1 EZE       0.424000
     30 H30          1.9240     0.0000     3.3540 ha         1 EZE       0.147000
@<TRIPOS>BOND
     1    15     7 1
     2     7    14 ar
     3     7     8 ar
     4    14     6 ar
     5     8     5 ar
     6     6    13 1
     7     6    12 ar
     8     5    12 ar
     9     5     4 1
    10    17    16 1
    11     3     4 2
    12     3     2 1
    13    16     2 ar
    14    16    18 ar
    15     2     1 ar
    16    18    10 ar
    17     1    11 ar
    18    10    11 ar
    19    10     9 1
    20     1    19 1
    21     3    20 1
    22     4    21 1
    23     8    22 1
    24     9    23 1
    25    11    24 1
    26    12    25 1
    27    13    26 1
    28    14    27 1
    29    15    28 1
    30    17    29 1
    31    18    30 1
@<TRIPOS>SUBSTRUCTURE
     1 EZE         1 TEMP              0 ****  ****    0 ROOT
