@<TRIPOS>MOLECULE
EZG
   45    46     1     0     0
SMALL
bcc


@<TRIPOS>ATOM
      1 CG           0.0000     0.0000     0.0000 cc         1 EZG       0.186600
      2 CB          -0.8850     0.0010    -1.2200 c3         1 EZG      -0.009700
      3 CA          -1.8600    -1.1760    -1.1430 c3         1 EZG      -0.157500
      4 C           -2.8240    -1.1040    -2.2990 c          1 EZG       0.543100
      5 O           -2.6500    -1.7980    -3.2780 o          1 EZG      -0.662100
      6 N           -1.1100    -2.4370    -1.2090 nz         1 EZG       0.096400
      7 CAG         -6.2250    -0.3780    -0.4510 ca         1 EZG      -0.112500
      8 CAI         -6.6550    -1.1980     0.5770 ca         1 EZG      -0.008000
      9 CAU         -7.5030    -2.2550     0.3080 ca         1 EZG      -0.439200
     10 NAY         -7.9620    -3.1330     1.4080 no         1 EZG       1.039200
     11 OAF         -7.5920    -2.9240     2.5490 o          1 EZG      -0.436500
     12 OAC         -8.7090    -4.0660     1.1710 o          1 EZG      -0.436500
     13 CAJ         -7.9230    -2.4930    -0.9880 ca         1 EZG      -0.008000
     14 CAH         -7.4940    -1.6730    -2.0150 ca         1 EZG      -0.112500
     15 CAT         -6.6500    -0.6120    -1.7450 ca         1 EZG      -0.101300
     16 CAW         -6.1820     0.2830    -2.8650 c3         1 EZG       0.235400
     17 OAE         -6.0660     1.6240    -2.3860 oh         1 EZG      -0.564800
     18 CAX         -4.8200    -0.2000    -3.3670 c3         1 EZG       0.000700
     19 CAM         -4.2880     0.7780    -4.4160 c3         1 EZG       0.208400
     20 OAD         -4.2580     2.0970    -3.8660 oh         1 EZG      -0.578800
     21 NAP         -3.8810    -0.2690    -2.2440 ns         1 EZG      -0.094900
     22 CD2          1.3470     0.0000     0.0000 cd         1 EZG      -0.399600
     23 NE2          1.7430     0.0000     1.3110 na         1 EZG       0.273100
     24 CE1          0.6230     0.0010     2.0650 cd         1 EZG       0.247400
     25 ND1         -0.4150     0.0060     1.2750 nc         1 EZG      -0.621000
     26 H1          -1.4420     0.9300    -1.2610 hc         1 EZG       0.054200
     27 H2          -0.2740    -0.0930    -2.1090 hc         1 EZG       0.054200
     28 H3          -2.4090    -1.1300    -0.2100 hx         1 EZG       0.112700
     29 H4          -1.7100    -3.1650    -1.5420 hn         1 EZG       0.227800
     30 H5          -0.7730    -2.6730    -0.2970 hn         1 EZG       0.227800
     31 H9          -8.5860    -3.3230    -1.1980 ha         1 EZG       0.140000
     32 H10         -7.8250    -1.8570    -3.0300 ha         1 EZG       0.124500
     33 H11         -6.8980     0.2500    -3.6770 h1         1 EZG       0.031700
     34 H12         -6.8930     2.0650    -2.4830 ho         1 EZG       0.411000
     35 H13         -4.9260    -1.1830    -3.8100 h1         1 EZG       0.071700
     36 H14         -3.2860     0.4850    -4.7070 h1         1 EZG       0.005200
     37 H15         -4.9350     0.7630    -5.2850 h1         1 EZG       0.005200
     38 H16         -3.9210     2.6980    -4.5100 ho         1 EZG       0.400000
     39 H17         -3.9980     0.3380    -1.4570 hn         1 EZG       0.205500
     40 H18          1.9840    -0.1800    -0.8580 h4         1 EZG       0.160000
     41 H19          2.6770     0.1390     1.6430 hn         1 EZG       0.144700
     42 H20          0.5920    -0.0020     3.1480 h5         1 EZG       0.043100
     43 H7          -5.5620     0.4530    -0.2400 ha         1 EZG       0.124500
     44 HN3         -0.3490    -2.3400    -1.8520 hn         1 EZG       0.227800
     45 H8          -6.3220    -1.0150     1.5910 ha         1 EZG       0.140000
@<TRIPOS>BOND
     1     1     2 1   
     2     1    22 2   
     3     1    25 1   
     4     2     3 1   
     5     2    26 1   
     6     2    27 1   
     7     3     4 1   
     8     3     6 1   
     9     3    28 1   
    10     4     5 2   
    11     4    21 1   
    12     6    29 1   
    13     6    30 1   
    14     6    44 1   
    15     7     8 ar  
    16     7    15 ar  
    17     7    43 1   
    18     8     9 ar  
    19     8    45 1   
    20     9    10 1   
    21     9    13 ar  
    22    10    11 1   
    23    10    12 1   
    24    13    14 ar  
    25    13    31 1   
    26    14    15 ar  
    27    14    32 1   
    28    15    16 1   
    29    16    17 1   
    30    16    18 1   
    31    16    33 1   
    32    17    34 1   
    33    18    19 1   
    34    18    21 1   
    35    18    35 1   
    36    19    20 1   
    37    19    36 1   
    38    19    37 1   
    39    20    38 1   
    40    21    39 1   
    41    22    23 1   
    42    22    40 1   
    43    23    24 1   
    44    23    41 1   
    45    24    25 2   
    46    24    42 1   
@<TRIPOS>SUBSTRUCTURE
     1 EZG         1 TEMP              0 ****  ****    0 ROOT
