@<TRIPOS>MOLECULE
molecule
   30    31     1     0     0
SMALL
bcc


@<TRIPOS>ATOM
      1 C4           0.0000     0.0000     0.0000 ca         1 EZH      -0.071000
      2 C5           1.3970     0.0000     0.0000 ca         1 EZH      -0.209800
      3 C6           2.1380     0.0000    -1.2730 ce         1 EZH      -0.175200
      4 C7           1.7100     0.7570    -2.2970 cf         1 EZH      -0.296200
      5 C8           0.6220     1.7300    -2.0920 ca         1 EZH      -0.082800
      6 C10         -1.3180     2.8940    -2.9160 ca         1 EZH       0.120600
      7 C13         -0.5120     3.3240    -0.6890 ca         1 EZH       0.120600
      8 C15          0.5110     2.4100    -0.8770 ca         1 EZH      -0.167000
      9 O1          -0.6840     0.0130     3.5710 oh         1 EZH      -0.516100
     10 C2           0.0020     0.0120     2.3990 ca         1 EZH       0.175100
     11 C3          -0.6890     0.0050     1.1940 ca         1 EZH      -0.171000
     12 C9          -0.2980     1.9780    -3.1140 ca         1 EZH      -0.167000
     13 O11         -2.2130     3.1370    -3.9090 oh         1 EZH      -0.517100
     14 C12         -1.4270     3.5630    -1.7050 ca         1 EZH      -0.178000
     15 O14         -0.6220     3.9870     0.4920 oh         1 EZH      -0.517100
     16 C16          2.0930     0.0000     1.2190 ca         1 EZH       0.161100
     17 O17          3.4500     0.0010     1.2290 oh         1 EZH      -0.502100
     18 C18          1.3900    -0.0000     2.4100 ca         1 EZH      -0.227000
     19 H21         -0.5420    -0.0060    -0.9380 ha         1 EZH       0.146000
     20 H22          2.3300     0.7620    -0.5260 ha         1 EZH       0.303000
     21 H23          0.6750     0.4430    -2.3600 ha         1 EZH       0.278000
     22 H28          1.2250     2.2240    -0.0840 ha         1 EZH       0.156500
     23 H19         -0.8000    -0.8750     3.8680 ho         1 EZH       0.430000
     24 H20         -1.7720     0.0050     1.1920 ha         1 EZH       0.153000
     25 H24         -0.1760     1.5020    -4.0790 ha         1 EZH       0.156500
     26 H25         -1.9160     3.8670    -4.4280 ho         1 EZH       0.425500
     27 H26         -2.2260     4.2790    -1.5550 ha         1 EZH       0.152000
     28 H27         -0.2930     4.8640     0.3930 ho         1 EZH       0.425500
     29 H29          3.7620    -0.7940     1.6280 ho         1 EZH       0.438000
     30 H30          1.9230    -0.0000     3.3530 ha         1 EZH       0.155000
@<TRIPOS>BOND
     1    15     7 1
     2     9    10 1
     3    11    10 ar
     4    11     1 ar
     5    10    18 ar
     6     7     8 ar
     7     7    14 ar
     8     8     5 ar
     9     1     2 ar
    10    18    16 ar
    11    14     6 ar
    12     2    16 ar
    13     2     3 1
    14    16    17 1
    15     5     4 1
    16     5    12 ar
    17     3     4 2
    18     6    12 ar
    19     6    13 1
    20     1    19 1
    21     3    20 1
    22     4    21 1
    23     8    22 1
    24     9    23 1
    25    11    24 1
    26    12    25 1
    27    13    26 1
    28    14    27 1
    29    15    28 1
    30    17    29 1
    31    18    30 1
@<TRIPOS>SUBSTRUCTURE
     1 EZH         1 TEMP              0 ****  ****    0 ROOT
