@<TRIPOS>MOLECULE
molecule
   50    53     1     0     0
SMALL
bcc


@<TRIPOS>ATOM
      1 N1           0.0000     0.0000     0.0000 nu         1 EZK      -0.395100
      2 N3          -5.4260    -1.3540    -3.3970 ns         1 EZK      -0.475100
      3 C4          -2.6730    -0.1200     0.6500 ca         1 EZK      -0.092200
      4 C5          -2.4590    -0.9820    -0.4320 ca         1 EZK      -0.168500
      5 C6          -3.4130    -1.1140    -1.3980 ca         1 EZK      -0.044000
      6 C7          -4.6050    -0.3870    -1.3080 ca         1 EZK      -0.134600
      7 C8          -4.8200     0.4750    -0.2260 ca         1 EZK      -0.044000
      8 C10         -5.6330    -0.5240    -2.3560 c          1 EZK       0.676700
      9 C13         -7.6040    -3.0360    -5.8360 ca         1 EZK      -0.141000
     10 C15         -8.2910    -0.7290    -5.6160 ca         1 EZK       0.018400
     11 C17        -10.2260    -3.2550    -7.0110 cz         1 EZK       0.440300
     12 C1           1.8540     0.0000     1.4910 c3         1 EZK       0.008300
     13 C2           1.4690     0.0000     0.0000 c3         1 EZK       0.008300
     14 C3          -0.4450     0.0060     1.2890 cz         1 EZK       0.435300
     15 N2           0.5670     0.0090     2.2010 nu         1 EZK      -0.379200
     16 C9          -3.8690     0.6020     0.7430 ca         1 EZK      -0.168500
     17 C11         -6.4440    -1.5680    -4.3340 ca         1 EZK       0.089600
     18 O1          -6.6660     0.1120    -2.2800 o          1 EZK      -0.563100
     19 C12         -6.6020    -2.8210    -4.9130 ca         1 EZK      -0.130000
     20 C14         -8.4570    -1.9900    -6.1950 ca         1 EZK      -0.147200
     21 C16         -7.2870    -0.5220    -4.6930 ca         1 EZK      -0.089000
     22 N4          -9.4530    -2.2000    -7.1130 nu         1 EZK      -0.228200
     23 N5         -10.2000    -4.1130    -5.9480 nu         1 EZK      -0.381700
     24 C18        -11.1930    -5.1750    -6.1640 c3         1 EZK       0.009800
     25 C19        -11.8320    -4.8360    -7.5230 c3         1 EZK       0.009800
     26 N6         -11.1490    -3.6090    -7.9550 nu         1 EZK      -0.381700
     27 N7          -1.7190     0.0120     1.6160 nu         1 EZK      -0.217300
     28 H1          -0.5810    -0.0020    -0.8150 hn         1 EZK       0.365700
     29 H3          -4.5340    -1.7910    -3.5190 hn         1 EZK       0.338500
     30 H4          -1.5350    -1.5430    -0.5030 ha         1 EZK       0.167000
     31 H5          -3.2470    -1.7810    -2.2350 ha         1 EZK       0.169500
     32 H6          -5.7440     1.0360    -0.1560 ha         1 EZK       0.169500
     33 H7          -7.7280    -4.0140    -6.2850 ha         1 EZK       0.159000
     34 H8           2.3190    -0.9570     1.6950 h1         1 EZK       0.108700
     35 H9           2.3310     0.9520     1.6930 h1         1 EZK       0.108700
     36 H10          1.7840     0.9540    -0.4060 h1         1 EZK       0.108700
     37 H11          1.7840    -0.9540    -0.4060 h1         1 EZK       0.108700
     38 H13          0.4530     0.0160     3.1960 hn         1 EZK       0.365700
     39 H15         -4.0350     1.2700     1.5800 ha         1 EZK       0.167000
     40 H16         -5.9400    -3.6330    -4.6340 ha         1 EZK       0.159000
     41 H17         -7.1580     0.4550    -4.2440 ha         1 EZK       0.204000
     42 H18         -9.6010    -4.0310    -5.1510 hn         1 EZK       0.363200
     43 H19        -11.9620    -5.0420    -5.4130 h1         1 EZK       0.106700
     44 H20        -10.6410    -6.0970    -6.2980 h1         1 EZK       0.106700
     45 H21        -11.5380    -5.6180    -8.2120 h1         1 EZK       0.106700
     46 H22        -12.8630    -4.5690    -7.3270 h1         1 EZK       0.106700
     47 H23        -11.3270    -3.1150    -8.8070 hn         1 EZK       0.363200
     48 H2          -2.0330     0.7980     1.0810 hn         1 EZK       0.325700
     49 H12         -9.6420    -1.7530    -6.2370 hn         1 EZK       0.324700
     50 Cl1         -9.3420     0.5780    -6.0640 cl         1 EZK      -0.022400
@<TRIPOS>BOND
     1    25    24 1
     2    25    26 1
     3    24    23 1
     4    26    11 1
     5    23    11 1
     6    11    22 2
     7    22    20 1
     8    50    10 1
     9    20     9 ar
    10    20    10 ar
    11     9    19 ar
    12    10    21 ar
    13    19    17 ar
    14    21    17 ar
    15    17     2 1
    16     2     8 1
    17    18     8 2
    18     8     6 1
    19     6     7 ar
    20     6     5 ar
    21     7    16 ar
    22     5     4 ar
    23    16     3 ar
    24     4     3 ar
    25     3    27 1
    26    27    14 1
    27    14    15 1
    28    14     1 2
    29    15    12 1
    30     1    13 1
    31    12    13 1
    32     1    28 1
    33     2    29 1
    34     4    30 1
    35     5    31 1
    36     7    32 1
    37     9    33 1
    38    12    34 1
    39    12    35 1
    40    13    36 1
    41    13    37 1
    42    15    38 1
    43    16    39 1
    44    19    40 1
    45    21    41 1
    46    23    42 1
    47    24    43 1
    48    24    44 1
    49    25    45 1
    50    25    46 1
    51    26    47 1
    52    27    48 1
    53    22    49 1
@<TRIPOS>SUBSTRUCTURE
     1 EZK         1 TEMP              0 ****  ****    0 ROOT
