@<TRIPOS>MOLECULE
EZK
   50    53     1     0     0
SMALL
bcc


@<TRIPOS>ATOM
      1 N1           0.0000     0.0000     0.0000 nu         1 EZK      -0.004100
      2 N3          -5.4260    -1.3540    -3.3970 ns         1 EZK      -0.035100
      3 C4          -2.6730    -0.1200     0.6500 ca         1 EZK      -0.208200
      4 C5          -2.4590    -0.9820    -0.4320 ca         1 EZK      -0.114500
      5 C6          -3.4130    -1.1140    -1.3980 ca         1 EZK      -0.018500
      6 C7          -4.6050    -0.3870    -1.3080 ca         1 EZK      -0.137600
      7 C8          -4.8200     0.4750    -0.2260 ca         1 EZK      -0.018500
      8 C10         -5.6330    -0.5240    -2.3560 c          1 EZK       0.583700
      9 C13         -7.6040    -3.0360    -5.8360 ca         1 EZK      -0.088000
     10 C15         -8.2910    -0.7290    -5.6160 ca         1 EZK      -0.022600
     11 C17        -10.2260    -3.2550    -7.0110 cz         1 EZK       0.018300
     12 C1           1.8540     0.0000     1.4910 c3         1 EZK      -0.031200
     13 C2           1.4690     0.0000     0.0000 c3         1 EZK      -0.031200
     14 C3          -0.4450     0.0060     1.2890 cz         1 EZK       0.019300
     15 N2           0.5670     0.0090     2.2010 nu         1 EZK       0.011800
     16 C9          -3.8690     0.6020     0.7430 ca         1 EZK      -0.114500
     17 C11         -6.4440    -1.5680    -4.3340 ca         1 EZK      -0.049400
     18 O1          -6.6660     0.1120    -2.2800 o          1 EZK      -0.604100
     19 C12         -6.6020    -2.8210    -4.9130 ca         1 EZK      -0.101000
     20 C14         -8.4570    -1.9900    -6.1950 ca         1 EZK      -0.257200
     21 C16         -7.2870    -0.5220    -4.6930 ca         1 EZK      -0.073000
     22 N4          -9.4530    -2.2000    -7.1130 nu         1 EZK       0.257800
     23 N5         -10.2000    -4.1130    -5.9480 nu         1 EZK       0.013300
     24 C18        -11.1930    -5.1750    -6.1640 c3         1 EZK      -0.030700
     25 C19        -11.8320    -4.8360    -7.5230 c3         1 EZK      -0.030700
     26 N6         -11.1490    -3.6090    -7.9550 nu         1 EZK       0.013300
     27 N7          -1.7190     0.0120     1.6160 nu         1 EZK       0.269700
     28 H1          -0.5810    -0.0020    -0.8150 hn         1 EZK       0.202200
     29 H3          -4.5340    -1.7910    -3.5190 hn         1 EZK       0.182500
     30 H4          -1.5350    -1.5430    -0.5030 ha         1 EZK       0.126500
     31 H5          -3.2470    -1.7810    -2.2350 ha         1 EZK       0.132500
     32 H6          -5.7440     1.0360    -0.1560 ha         1 EZK       0.132500
     33 H7          -7.7280    -4.0140    -6.2850 ha         1 EZK       0.120000
     34 H8           2.3310     0.9520     1.6930 h1         1 EZK       0.063700
     35 H9           2.3190    -0.9570     1.6950 h1         1 EZK       0.063700
     36 H10          1.7840    -0.9540    -0.4060 h1         1 EZK       0.063700
     37 H11          1.7840     0.9540    -0.4060 h1         1 EZK       0.063700
     38 H13          0.4530     0.0160     3.1960 hn         1 EZK       0.202200
     39 H15         -4.0350     1.2700     1.5800 ha         1 EZK       0.126500
     40 H16         -5.9400    -3.6330    -4.6340 ha         1 EZK       0.125000
     41 H17         -7.1580     0.4550    -4.2440 ha         1 EZK       0.171000
     42 H18         -9.6010    -4.0310    -5.1510 hn         1 EZK       0.197700
     43 H19        -11.9620    -5.0420    -5.4130 h1         1 EZK       0.062200
     44 H20        -10.6410    -6.0970    -6.2980 h1         1 EZK       0.062200
     45 H21        -11.5380    -5.6180    -8.2120 h1         1 EZK       0.062200
     46 H22        -12.8630    -4.5690    -7.3270 h1         1 EZK       0.062200
     47 H23        -11.3270    -3.1150    -8.8070 hn         1 EZK       0.197700
     48 H2          -1.9860     0.0170     2.5800 hn         1 EZK       0.154700
     49 H12         -9.6620    -1.4930    -7.7900 hn         1 EZK       0.155700
     50 Cl1         -9.3420     0.5780    -6.0640 cl         1 EZK       0.051600
@<TRIPOS>BOND
     1     1    13 1   
     2     1    14 2   
     3     1    28 1   
     4     2     8 1   
     5     2    17 1   
     6     2    29 1   
     7     3     4 ar  
     8     3    16 ar  
     9     3    27 1   
    10     4     5 ar  
    11     4    30 1   
    12     5     6 ar  
    13     5    31 1   
    14     6     7 ar  
    15     6     8 1   
    16     7    16 ar  
    17     7    32 1   
    18     8    18 2   
    19     9    19 ar  
    20     9    20 ar  
    21     9    33 1   
    22    10    20 ar  
    23    10    21 ar  
    24    10    50 1   
    25    11    22 2   
    26    11    23 1   
    27    11    26 1   
    28    12    13 1   
    29    12    15 1   
    30    12    34 1   
    31    12    35 1   
    32    13    36 1   
    33    13    37 1   
    34    14    15 1   
    35    14    27 1   
    36    15    38 1   
    37    16    39 1   
    38    17    19 ar  
    39    17    21 ar  
    40    19    40 1   
    41    20    22 1   
    42    21    41 1   
    43    22    49 1   
    44    23    24 1   
    45    23    42 1   
    46    24    25 1   
    47    24    43 1   
    48    24    44 1   
    49    25    26 1   
    50    25    45 1   
    51    25    46 1   
    52    26    47 1   
    53    27    48 1   
@<TRIPOS>SUBSTRUCTURE
     1 EZK         1 TEMP              0 ****  ****    0 ROOT
