@<TRIPOS>MOLECULE
EZL
   27    28     1     0     0
SMALL
bcc


@<TRIPOS>ATOM
      1 N1           0.0000     0.0000     0.0000 nz         1 EZL      -0.129500
      2 C2           2.7910     0.0000     3.7670 ca         1 EZL      -0.078600
      3 C3           2.9070     1.3930     3.8070 ca         1 EZL       0.085900
      4 C4           3.3080     2.0330     4.9780 ca         1 EZL      -0.131000
      5 C5           3.5930     1.2920     6.1070 ca         1 EZL       0.298100
      6 C8           4.2640     1.0840     8.3790 c3         1 EZL       0.205400
      7 S1           1.6570     0.0000     0.0000 sy         1 EZL       0.896000
      8 C1           2.1780     0.3990     1.6350 cc         1 EZL       0.174600
      9 N2           2.3940    -0.4560     2.5620 nd         1 EZL      -0.234100
     10 S2           2.4760     2.0300     2.2220 ss         1 EZL      -0.110100
     11 C6           3.4800    -0.0960     6.0720 ca         1 EZL      -0.209000
     12 C7           3.0940    -0.7330     4.9340 ca         1 EZL       0.029000
     13 C9           4.6870     1.9560     9.5620 c3         1 EZL       0.001900
     14 HN1         -0.3340    -0.6890     0.6450 hn         1 EZL       0.314467
     15 HN1A        -0.3340    -0.2140    -0.9190 hn         1 EZL       0.314467
     16 H4           3.3440     3.1040     4.8160 ha         1 EZL       0.146000
     17 H8           3.3760     0.5230     8.6420 h1         1 EZL       0.005200
     18 H8A          5.0650     0.3980     8.1320 h1         1 EZL       0.005200
     19 H6           3.5910    -0.9890     6.6750 ha         1 EZL       0.159000
     20 H7           2.9830    -1.8000     4.7810 ha         1 EZL       0.124000
     21 H9           3.8860     2.6430     9.8090 hc         1 EZL       0.020033
     22 H9A          4.8980     1.3260    10.4180 hc         1 EZL       0.020033
     23 H9B          5.5750     2.5160     9.2980 hc         1 EZL       0.020033
     24 O1           2.0570    -1.3440    -0.2320 o          1 EZL      -0.478300
     25 O2           2.0580     1.0830    -0.8260 o          1 EZL      -0.478300
     26 H13         -0.3340     0.9040     0.2690 hn         1 EZL       0.314467
     27 O3           3.9850     1.9150     7.2500 os         1 EZL      -0.284900
@<TRIPOS>BOND
     1     1     7 1   
     2     1    14 1   
     3     1    15 1   
     4     1    26 1   
     5     2     3 ar  
     6     2     9 1   
     7     2    12 ar  
     8     3     4 ar  
     9     3    10 1   
    10     4     5 ar  
    11     4    16 1   
    12     5    11 ar  
    13     5    27 1   
    14     6    13 1   
    15     6    17 1   
    16     6    18 1   
    17     6    27 1   
    18     7     8 1   
    19     7    24 2   
    20     7    25 2   
    21     8     9 2   
    22     8    10 1   
    23    11    12 ar  
    24    11    19 1   
    25    12    20 1   
    26    13    21 1   
    27    13    22 1   
    28    13    23 1   
@<TRIPOS>SUBSTRUCTURE
     1 EZL         1 TEMP              0 ****  ****    0 ROOT
