@<TRIPOS>MOLECULE
molecule
   50    50     1     0     0
SMALL
bcc


@<TRIPOS>ATOM
      1 CAG          0.0000     0.0000     0.0000 ca         1 EZM      -0.129000
      2 CAI          1.3820     0.0000     0.0000 ca         1 EZM      -0.069500
      3 CAU          2.0730     0.0000     1.1970 ca         1 EZM      -0.144200
      4 NAY          3.5530    -0.0000     1.1980 no         1 EZM       0.287200
      5 OAF          4.1620    -0.0020     0.1430 o          1 EZM      -0.183500
      6 OAC          4.1620     0.0000     2.2530 o          1 EZM      -0.183500
      7 CAJ          1.3820     0.0020     2.3950 ca         1 EZM      -0.069500
      8 CAH         -0.0010     0.0020     2.3940 ca         1 EZM      -0.129000
      9 CAT         -0.6920     0.0070     1.1970 ca         1 EZM      -0.103300
     10 CAW         -2.1980     0.0070     1.1960 c3         1 EZM       0.183400
     11 OAE         -2.6740     0.7840     0.0960 oh         1 EZM      -0.586800
     12 CAX         -2.7080    -1.4300     1.0650 c3         1 EZM       0.124700
     13 CAM         -4.2330    -1.4190     0.9390 c3         1 EZM       0.123400
     14 OAD         -4.6160    -0.5770    -0.1500 oh         1 EZM      -0.597800
     15 NAP         -2.1240    -2.0480    -0.1280 ns         1 EZM      -0.513900
     16 C           -1.9970    -3.3880    -0.1990 c          1 EZM       0.631100
     17 O           -2.3680    -4.0810     0.7250 o          1 EZM      -0.592100
     18 CA          -1.3970    -4.0240    -1.4250 c3         1 EZM       0.025500
     19 N           -0.9300    -5.3770    -1.0970 nz         1 EZM      -0.804600
     20 CB          -2.4540    -4.1030    -2.5280 c3         1 EZM      -0.104400
     21 CG          -1.8130    -4.6340    -3.8130 c3         1 EZM      -0.091400
     22 CD          -2.8690    -4.7130    -4.9160 c3         1 EZM      -0.109400
     23 CE          -2.2280    -5.2430    -6.1990 c3         1 EZM       0.096800
     24 NZ          -3.2430    -5.3190    -7.2590 nz         1 EZM      -0.809600
     25 H1          -0.5410     0.0020    -0.9380 ha         1 EZM       0.148000
     26 H2           1.9240    -0.0050    -0.9380 ha         1 EZM       0.175500
     27 H3           1.9230     0.0000     3.3330 ha         1 EZM       0.175500
     28 H4          -0.5430     0.0050     3.3320 ha         1 EZM       0.148000
     29 H5          -2.5600     0.4350     2.1240 h1         1 EZM       0.078700
     30 H6          -2.7520     1.6860     0.3580 ho         1 EZM       0.431000
     31 H7          -2.4220    -1.9960     1.9430 h1         1 EZM       0.105700
     32 H8          -4.5870    -2.4270     0.7570 h1         1 EZM       0.045200
     33 H9          -4.6690    -1.0440     1.8560 h1         1 EZM       0.045200
     34 H10         -5.5540    -0.5830    -0.2370 ho         1 EZM       0.415000
     35 H11         -1.8610    -1.4790    -0.9080 hn         1 EZM       0.343500
     36 H12         -0.5600    -3.4280    -1.7690 hx         1 EZM       0.124700
     37 H13         -1.0350    -5.5370    -0.1140 hn         1 EZM       0.467467
     38 H14         -1.4720    -6.0490    -1.6040 hn         1 EZM       0.467467
     39 H16         -3.2490    -4.7710    -2.2190 hc         1 EZM       0.101700
     40 H17         -2.8610    -3.1160    -2.7090 hc         1 EZM       0.101700
     41 H18         -1.4050    -5.6210    -3.6310 hc         1 EZM       0.056700
     42 H19         -1.0170    -3.9660    -4.1210 hc         1 EZM       0.056700
     43 H20         -3.2770    -3.7260    -5.0970 hc         1 EZM       0.079700
     44 H21         -3.6640    -5.3810    -4.6070 hc         1 EZM       0.079700
     45 H22         -1.8200    -6.2300    -6.0180 hx         1 EZM       0.116700
     46 H23         -1.4330    -4.5750    -6.5080 hx         1 EZM       0.116700
     47 H24         -2.8250    -5.6760    -8.0960 hn         1 EZM       0.467467
     48 H25         -3.9820    -5.9290    -6.9690 hn         1 EZM       0.467467
     49 HN3          0.0300    -5.4720    -1.3610 hn         1 EZM       0.467467
     50 HZ3         -3.6270    -4.4090    -7.4200 hn         1 EZM       0.467467
@<TRIPOS>BOND
     1    14    13 1
     2    23    24 1
     3    23    22 1
     4    21    22 1
     5    21    20 1
     6    17    16 2
     7    13    12 1
     8    12    15 1
     9    12    10 1
    10    20    18 1
    11    16    15 1
    12    16    18 1
    13     8     7 ar
    14     8     9 ar
    15    10     9 1
    16    10    11 1
    17    18    19 1
    18     7     3 ar
    19     9     1 ar
    20     6     4 1
    21     3     4 1
    22     3     2 ar
    23     1     2 ar
    24     4     5 1
    25     1    25 1
    26     2    26 1
    27     7    27 1
    28     8    28 1
    29    10    29 1
    30    11    30 1
    31    12    31 1
    32    13    32 1
    33    13    33 1
    34    14    34 1
    35    15    35 1
    36    18    36 1
    37    19    37 1
    38    19    38 1
    39    20    39 1
    40    20    40 1
    41    21    41 1
    42    21    42 1
    43    22    43 1
    44    22    44 1
    45    23    45 1
    46    23    46 1
    47    24    47 1
    48    24    48 1
    49    49    19 1
    50    50    24 1
@<TRIPOS>SUBSTRUCTURE
     1 EZM         1 TEMP              0 ****  ****    0 ROOT
