@<TRIPOS>MOLECULE
molecule
   32    34     1     0     0
SMALL
bcc


@<TRIPOS>ATOM
      1 N1           0.0000     0.0000     0.0000 na         1 EZN      -0.174400
      2 C2           4.4480     0.0010     5.7060 ca         1 EZN      -0.112000
      3 C4           3.0850     0.9290     3.9660 ca         1 EZN      -0.065000
      4 C5           3.6100     0.0010     3.0660 cp         1 EZN       0.017000
      5 C6           4.5610    -0.9220     3.5000 ca         1 EZN      -0.103000
      6 C8           4.0950     0.0000     0.6240 ca         1 EZN      -0.132000
      7 C9           3.6760    -0.0010    -0.6960 ca         1 EZN      -0.115000
      8 C10          2.3330     0.0000    -1.0110 ca         1 EZN      -0.108000
      9 C11          1.3780     0.0000     0.0000 ca         1 EZN      -0.035200
     10 C12         -0.4650     0.0010     1.2860 cc         1 EZN      -0.069100
     11 C13          0.5680    -0.0040     2.1450 cd         1 EZN      -0.222200
     12 C3           3.5070     0.9240     5.2810 ca         1 EZN       0.032400
     13 C1           4.9740    -0.9180     4.8160 ca         1 EZN      -0.188300
     14 C            6.0010    -1.9150     5.2860 c3         1 EZN       0.162100
     15 N            7.3470    -1.3480     5.1180 nz         1 EZN      -0.811600
     16 C7           3.1630     0.0000     1.6540 cp         1 EZN      -0.040000
     17 C14          1.7910     0.0000     1.3430 ca         1 EZN      -0.082800
     18 H1          -0.5750     0.0030    -0.8190 hn         1 EZN       0.308700
     19 H2           4.7750     0.0010     6.7390 ha         1 EZN       0.145000
     20 H3           2.3480     1.6500     3.6340 ha         1 EZN       0.180000
     21 H4           4.9730    -1.6440     2.8050 ha         1 EZN       0.143000
     22 H5           5.1530    -0.0000     0.8540 ha         1 EZN       0.119000
     23 H6           4.4120    -0.0000    -1.4910 ha         1 EZN       0.142000
     24 H7           2.0220    -0.0010    -2.0490 ha         1 EZN       0.141000
     25 H8          -1.5100     0.0050     1.5700 h4         1 EZN       0.179000
     26 H9           0.5070    -0.0050     3.2270 ha         1 EZN       0.156000
     27 H10          5.8330    -2.1420     6.3310 hx         1 EZN       0.113200
     28 H11          5.9170    -2.8230     4.7010 hx         1 EZN       0.113200
     29 H12          7.5720    -1.3040     4.1440 hn         1 EZN       0.454800
     30 H13          7.3720    -0.4270     5.5080 hn         1 EZN       0.454800
     31 Cl           2.8550     2.0780     6.4030 cl         1 EZN      -0.056400
     32 HN3          8.0140    -1.9270     5.5880 hn         1 EZN       0.454800
@<TRIPOS>BOND
     1     8     7 ar
     2     8     9 ar
     3     7     6 ar
     4     9     1 1
     5     9    17 ar
     6     1    10 1
     7     6    16 ar
     8    10    11 2
     9    17    16 ar
    10    17    11 1
    11    16     4 1
    12     4     5 ar
    13     4     3 ar
    14     5    13 ar
    15     3    12 ar
    16    13    14 1
    17    13     2 ar
    18    14    15 1
    19    12     2 ar
    20    12    31 1
    21     1    18 1
    22     2    19 1
    23     3    20 1
    24     5    21 1
    25     6    22 1
    26     7    23 1
    27     8    24 1
    28    10    25 1
    29    11    26 1
    30    14    27 1
    31    14    28 1
    32    15    29 1
    33    15    30 1
    34    32    15 1
@<TRIPOS>SUBSTRUCTURE
     1 EZN         1 TEMP              0 ****  ****    0 ROOT
