@<TRIPOS>MOLECULE
molecule
   45    46     1     0     0
SMALL
bcc


@<TRIPOS>ATOM
      1 CAG          0.0000     0.0000     0.0000 ca         1 EZP      -0.128000
      2 CAI          1.3830     0.0000     0.0000 ca         1 EZP      -0.071500
      3 CAU          2.0720     0.0000     1.1980 ca         1 EZP      -0.146200
      4 NAY          3.5530    -0.0000     1.1980 no         1 EZP       0.289200
      5 OAF          4.1620    -0.0000     0.1440 o          1 EZP      -0.191500
      6 OAC          4.1620     0.0000     2.2540 o          1 EZP      -0.191500
      7 CAJ          1.3810     0.0010     2.3950 ca         1 EZP      -0.071500
      8 CAH         -0.0010     0.0010     2.3940 ca         1 EZP      -0.128000
      9 CAT         -0.6920     0.0060     1.1970 ca         1 EZP      -0.094300
     10 CAW         -2.1990     0.0050     1.1960 c3         1 EZP       0.181400
     11 OAE         -2.6750     0.7840     0.0950 oh         1 EZP      -0.579800
     12 CAX         -2.7080    -1.4300     1.0630 c3         1 EZP       0.127700
     13 CAM         -4.2340    -1.4210     0.9370 c3         1 EZP       0.124400
     14 OAD         -4.6160    -0.5790    -0.1510 oh         1 EZP      -0.592800
     15 NAP         -2.1240    -2.0490    -0.1300 ns         1 EZP      -0.528900
     16 C           -1.9970    -3.3880    -0.2010 c          1 EZP       0.633100
     17 O           -2.3680    -4.0830     0.7220 o          1 EZP      -0.608100
     18 CA          -1.3950    -4.0240    -1.4280 c3         1 EZP       0.035500
     19 N           -1.7890    -5.4370    -1.4900 nz         1 EZP      -0.786600
     20 CB           0.1300    -3.9210    -1.3590 c3         1 EZP      -0.094700
     21 CG           0.7260    -4.4450    -2.6400 cc         1 EZP       0.238600
     22 CD2          1.5730    -3.7800    -3.4490 cd         1 EZP      -0.207600
     23 NE2          1.8660    -4.6170    -4.4920 na         1 EZP      -0.274900
     24 CE1          1.1870    -5.7660    -4.2840 cc         1 EZP       0.446400
     25 ND1          0.5110    -5.6580    -3.1720 nd         1 EZP      -0.777000
     26 H1          -0.5400     0.0580    -0.9370 ha         1 EZP       0.152000
     27 H2           1.9240     0.0540    -0.9370 ha         1 EZP       0.172500
     28 H3           1.9230     0.0330     3.3330 ha         1 EZP       0.172500
     29 H4          -0.5430     0.0240     3.3320 ha         1 EZP       0.152000
     30 H5          -2.5600     0.4320     2.1240 h1         1 EZP       0.069700
     31 H6          -2.7710     1.6830     0.3640 ho         1 EZP       0.423000
     32 H7          -2.4230    -1.9980     1.9410 h1         1 EZP       0.101700
     33 H8          -4.5870    -2.4290     0.7550 h1         1 EZP       0.040200
     34 H9          -4.6700    -1.0460     1.8550 h1         1 EZP       0.040200
     35 H10         -5.5530    -0.6050    -0.2550 ho         1 EZP       0.411000
     36 H11         -1.8630    -1.4800    -0.9100 hn         1 EZP       0.344500
     37 H12         -1.7520    -3.5100    -2.3120 hx         1 EZP       0.120700
     38 H13         -1.1840    -5.9790    -0.9050 hn         1 EZP       0.466467
     39 H14         -1.7180    -5.7620    -2.4340 hn         1 EZP       0.466467
     40 H16          0.4940    -4.5080    -0.5250 hc         1 EZP       0.093200
     41 H17          0.4160    -2.8850    -1.2250 hc         1 EZP       0.093200
     42 H18          1.9510    -2.7750    -3.3020 h4         1 EZP       0.194000
     43 H19          2.4690    -4.4160    -5.2640 hn         1 EZP       0.328700
     44 H20          1.2040    -6.6350    -4.9300 h5         1 EZP       0.087100
     45 HN3         -2.7310    -5.5360    -1.1680 hn         1 EZP       0.466467
@<TRIPOS>BOND
     1    14    13 1
     2    24    23 1
     3    24    25 2
     4    23    22 1
     5    25    21 1
     6    22    21 2
     7    17    16 2
     8    13    12 1
     9    12    15 1
    10    12    10 1
    11    21    20 1
    12    16    15 1
    13    16    18 1
    14    18    20 1
    15    18    19 1
    16     8     7 ar
    17     8     9 ar
    18    10     9 1
    19    10    11 1
    20     7     3 ar
    21     9     1 ar
    22     6     4 1
    23     3     4 1
    24     3     2 ar
    25     1     2 ar
    26     4     5 1
    27     1    26 1
    28     2    27 1
    29     7    28 1
    30     8    29 1
    31    10    30 1
    32    11    31 1
    33    12    32 1
    34    13    33 1
    35    13    34 1
    36    14    35 1
    37    15    36 1
    38    18    37 1
    39    19    38 1
    40    19    39 1
    41    20    40 1
    42    20    41 1
    43    22    42 1
    44    23    43 1
    45    24    44 1
    46    45    19 1
@<TRIPOS>SUBSTRUCTURE
     1 EZP         1 TEMP              0 ****  ****    0 ROOT
