@<TRIPOS>MOLECULE
molecule
   61    66     1     0     0
SMALL
bcc


@<TRIPOS>ATOM
      1 C4           0.0000     0.0000     0.0000 ca         1 EZR      -0.077000
      2 C5         -10.9010    -1.3800     2.3840 ca         1 EZR      -0.132000
      3 C6         -10.3870    -3.1770     3.8930 ca         1 EZR      -0.184000
      4 C7           1.3780     0.0000     0.0000 ca         1 EZR      -0.185000
      5 C8          -2.8710     0.9220     0.4370 ca         1 EZR      -0.161000
      6 C10         -4.9500    -0.0210     1.2320 ca         1 EZR      -0.215900
      7 C13         -8.5960    -1.9440     2.8540 ca         1 EZR       0.114400
      8 C15         -4.2620     0.9190     0.4420 ca         1 EZR      -0.023200
      9 C17          2.0780     0.0000     1.2020 ca         1 EZR       0.206600
     10 C20         -7.4980    -0.5040     1.6420 cc         1 EZR       0.420500
     11 C21         -8.2630    -3.6510     5.8400 c3         1 EZR       0.126800
     12 C22         -8.2060    -5.1660     3.9530 c3         1 EZR       0.126800
     13 C24         -7.1220    -5.9920     4.6500 c3         1 EZR       0.162300
     14 C26          0.1160    -0.0000     4.7910 c3         1 EZR       0.126700
     15 C1         -11.3150    -2.3870     3.2300 ca         1 EZR      -0.105000
     16 C2          -4.2370    -0.9420     2.0040 ca         1 EZR      -0.044000
     17 C3          -2.8730    -0.9310     1.9920 ca         1 EZR      -0.145000
     18 C9           1.3910     0.0000     2.4090 ca         1 EZR      -0.239000
     19 C11         -2.1780     0.0010     1.2100 cp         1 EZR       0.027000
     20 C12         -0.6960     0.0000     1.2070 cp         1 EZR      -0.084000
     21 C14         -9.5450    -1.1510     2.1890 ca         1 EZR      -0.085200
     22 C16         -9.0320    -2.9660     3.7130 ca         1 EZR       0.145600
     23 C18          0.0070     0.0000     2.4170 ca         1 EZR       0.159100
     24 C19         -6.3800     0.2330     1.0210 cc         1 EZR       0.361600
     25 C23         -7.1780    -4.4760     6.5350 c3         1 EZR       0.162300
     26 C25         -8.5520    -6.4700     6.5440 c3         1 EZR       0.142100
     27 N27         -7.3700    -1.5030     2.4810 nd         1 EZR      -0.566100
     28 N28         -6.4830     1.2370     0.1790 nd         1 EZR      -0.511100
     29 N29         -8.8270    -0.2470     1.4280 na         1 EZR      -0.253300
     30 N30         -5.2100     1.6780    -0.1950 na         1 EZR      -0.046100
     31 N31         -8.1030    -3.7650     4.3830 nh         1 EZR      -0.599000
     32 N32          3.4740    -0.0010     1.1950 nv         1 EZR      -0.993200
     33 N33         -7.2810    -5.8770     6.1050 n3         1 EZR      -0.723600
     34 O34         -0.6670    -0.0000     3.5970 os         1 EZR      -0.319900
     35 H4          -0.5420    -0.0000    -0.9380 ha         1 EZR       0.139000
     36 H5         -11.6340    -0.7690     1.8710 ha         1 EZR       0.129000
     37 H6         -10.7260    -3.9650     4.5550 ha         1 EZR       0.135000
     38 H7           1.9180    -0.0000    -0.9390 ha         1 EZR       0.137000
     39 H8          -2.3310     1.6410    -0.1670 ha         1 EZR       0.133000
     40 H21         -9.2390    -4.0250     6.1260 h1         1 EZR       0.041950
     41 H21A        -8.1690    -2.6120     6.1320 h1         1 EZR       0.041950
     42 H22         -9.1820    -5.5540     4.2210 h1         1 EZR       0.041950
     43 H22A        -8.0700    -5.2240     2.8800 h1         1 EZR       0.041950
     44 H24         -6.1460    -5.6190     4.3640 h1         1 EZR       0.063450
     45 H24A        -7.2170    -7.0310     4.3580 h1         1 EZR       0.063450
     46 H26          0.7360    -0.8890     4.8170 h1         1 EZR       0.042033
     47 H26A        -0.5390     0.0070     5.6530 h1         1 EZR       0.042033
     48 H26B         0.7470     0.8800     4.8100 h1         1 EZR       0.042033
     49 H1         -12.3740    -2.5620     3.3800 ha         1 EZR       0.133000
     50 H2          -4.7670    -1.6650     2.6110 ha         1 EZR       0.165000
     51 H3          -2.3240    -1.6460     2.5920 ha         1 EZR       0.145000
     52 H9           1.9380     0.0000     3.3440 ha         1 EZR       0.143000
     53 H23         -6.2030    -4.0870     6.2670 h1         1 EZR       0.063450
     54 H23A        -7.3130    -4.4180     7.6090 h1         1 EZR       0.063450
     55 H25         -9.3690    -6.0240     5.9900 h1         1 EZR       0.031700
     56 H25A        -8.6900    -6.2860     7.6020 h1         1 EZR       0.031700
     57 H25B        -8.5340    -7.5380     6.3630 h1         1 EZR       0.031700
     58 HN29        -9.2040     0.3650     0.7320 hn         1 EZR       0.313700
     59 HN30        -5.0210     2.4310    -0.8260 hn         1 EZR       0.333700
     60 HN32         3.9750     0.8650     1.1900 hn         1 EZR       0.429300
     61 HN3A         3.9730    -0.8680     1.1870 hn         1 EZR       0.429300
@<TRIPOS>BOND
     1     1     4 ar
     2     1    20 ar
     3     2    15 ar
     4     2    21 ar
     5     3    15 ar
     6     3    22 ar
     7     4     9 ar
     8     5     8 ar
     9     5    19 ar
    10     6     8 ar
    11     6    16 ar
    12     6    24 1
    13     7    21 ar
    14     7    22 ar
    15     7    27 1
    16     8    30 1
    17     9    18 ar
    18     9    32 1
    19    10    24 1
    20    10    27 2
    21    10    29 1
    22    11    25 1
    23    11    31 1
    24    12    13 1
    25    12    31 1
    26    13    33 1
    27    14    34 1
    28    16    17 ar
    29    17    19 ar
    30    18    23 ar
    31    19    20 1
    32    20    23 ar
    33    21    29 1
    34    22    31 1
    35    23    34 1
    36    24    28 2
    37    25    33 1
    38    26    33 1
    39    28    30 1
    40     1    35 1
    41     2    36 1
    42     3    37 1
    43     4    38 1
    44     5    39 1
    45    11    40 1
    46    11    41 1
    47    12    42 1
    48    12    43 1
    49    13    44 1
    50    13    45 1
    51    14    46 1
    52    14    47 1
    53    14    48 1
    54    15    49 1
    55    16    50 1
    56    17    51 1
    57    18    52 1
    58    25    53 1
    59    25    54 1
    60    26    55 1
    61    26    56 1
    62    26    57 1
    63    29    58 1
    64    30    59 1
    65    32    60 1
    66    32    61 1
@<TRIPOS>SUBSTRUCTURE
     1 EZR         1 TEMP              0 ****  ****    0 ROOT
