@<TRIPOS>MOLECULE
molecule
   30    31     1     0     0
SMALL
bcc


@<TRIPOS>ATOM
      1 C11          0.0000     0.0000     0.0000 c          1 EZS       0.514600
      2 C12          1.5070     0.0000     0.0000 c3         1 EZS      -0.177100
      3 C15         -1.1470     0.0000     3.3930 cc         1 EZS       0.397800
      4 C16         -0.9600     0.0050     4.8880 c3         1 EZS      -0.107400
      5 C01         -4.7730     2.1550     2.7950 ca         1 EZS      -0.082500
      6 C02         -5.1430     3.4510     3.0980 ca         1 EZS      -0.166000
      7 C03         -4.8100     3.9980     4.3250 ca         1 EZS       0.148900
      8 C04         -4.1050     3.2450     5.2480 ca         1 EZS      -0.166000
      9 C05         -3.7350     1.9490     4.9440 ca         1 EZS      -0.082500
     10 C06         -4.0690     1.4040     3.7190 ca         1 EZS      -0.140300
     11 C07         -3.6640    -0.0100     3.3880 c3         1 EZS       0.091600
     12 C09         -2.1030    -0.0020     1.4220 cc         1 EZS      -0.193600
     13 C10         -0.7330    -0.0020     1.2680 cd         1 EZS       0.220800
     14 N08         -2.3450    -0.0050     2.7510 na         1 EZS      -0.175900
     15 N14         -0.1880     0.0050     2.5140 nd         1 EZS      -0.665000
     16 O13         -0.6070     0.0070    -1.0510 o          1 EZS      -0.548100
     17 H1           1.8680    -0.8820     0.5140 hc         1 EZS       0.063033
     18 H2           1.8680    -0.0040    -1.0210 hc         1 EZS       0.063033
     19 H3           1.8680     0.8870     0.5070 hc         1 EZS       0.063033
     20 H4          -1.7640    -0.5500     5.3550 hc         1 EZS       0.054700
     21 H5          -0.9680     1.0260     5.2490 hc         1 EZS       0.054700
     22 H6          -0.0110    -0.4570     5.1340 hc         1 EZS       0.054700
     23 H7          -5.0340     1.7270     1.8350 ha         1 EZS       0.139000
     24 H8          -5.6950     4.0400     2.3750 ha         1 EZS       0.150500
     25 H9          -3.8440     3.6720     6.2090 ha         1 EZS       0.150500
     26 H10         -3.1840     1.3600     5.6670 ha         1 EZS       0.139000
     27 H11         -4.3900    -0.4440     2.7120 h1         1 EZS       0.071200
     28 H12         -3.6230    -0.5960     4.2980 h1         1 EZS       0.071200
     29 H13         -2.8420    -0.0040     0.6300 h4         1 EZS       0.191000
     30 F17         -5.1730     5.2650     4.6210 f          1 EZS      -0.134900
@<TRIPOS>BOND
     1    16     1 2
     2    12    14 1
     3    12    13 2
     4    11    14 1
     5    11    10 1
     6     1    13 1
     7     1     2 1
     8    14     3 1
     9    13    15 1
    10     5    10 ar
    11     5     6 ar
    12    10     9 ar
    13     3    15 2
    14     3     4 1
    15     6     7 ar
    16     9     8 ar
    17     7     8 ar
    18     7    30 1
    19     2    17 1
    20     2    18 1
    21     2    19 1
    22     4    20 1
    23     4    21 1
    24     4    22 1
    25     5    23 1
    26     6    24 1
    27     8    25 1
    28     9    26 1
    29    11    27 1
    30    11    28 1
    31    12    29 1
@<TRIPOS>SUBSTRUCTURE
     1 EZS         1 TEMP              0 ****  ****    0 ROOT
