@<TRIPOS>MOLECULE
EZT
   61    65     1     0     0
SMALL
bcc


@<TRIPOS>ATOM
      1 C18         0.3610    0.3770    0.5650 c3        1 EZT     -0.078100
      2 C13        -0.9240   -0.1760   -0.0330 c3        1 EZT     -0.030000
      3 C12        -1.9090   -0.5080    1.0750 c3        1 EZT     -0.065400
      4 C11        -1.4160   -1.6720    1.9210 c3        1 EZT     -0.071400
      5 C9         -1.0240   -2.9040    1.1110 c3        1 EZT     -0.008400
      6 C10        -0.4480   -4.0040    1.9480 ca        1 EZT     -0.100300
      7 C1         -0.8540   -4.1760    3.2790 ca        1 EZT     -0.097000
      8 C2         -0.3730   -5.2190    4.0590 ca        1 EZT     -0.159000
      9 C3          0.5390   -6.1230    3.4940 ca        1 EZT      0.123100
     10 O3          0.9850   -7.1410    4.3070 oh        1 EZT     -0.498100
     11 C4          0.9570   -5.9750    2.1680 ca        1 EZT     -0.217000
     12 C5          0.4660   -4.9170    1.3930 ca        1 EZT     -0.032300
     13 C6          0.9750   -4.8040   -0.0030 c3        1 EZT     -0.037100
     14 C7          0.2280   -3.7940   -0.8460 c3        1 EZT     -0.073400
     15 C8         -0.0610   -2.5440   -0.0350 c3        1 EZT     -0.048700
     16 C14        -0.7080   -1.4600   -0.8670 c3        1 EZT     -0.065700
     17 C15        -0.0130   -0.9790   -2.1340 c3        1 EZT     -0.070400
     18 C16        -0.5920    0.4120   -2.3940 c3        1 EZT     -0.107400
     19 C17        -1.4130    0.8220   -1.1330 c3        1 EZT      0.184000
     20 O17        -1.0630    2.1380   -0.7370 oh        1 EZT     -0.585800
     21 C19        -2.8760    0.6680   -1.4200 c2        1 EZT     -0.151200
     22 C20        -3.8760    1.5180   -1.1770 ce        1 EZT     -0.144200
     23 C21        -3.8340    2.8000   -0.4800 ca        1 EZT      0.006200
     24 C22        -3.8080    2.8110    0.9230 ca        1 EZT     -0.116000
     25 C23        -3.8470    4.0130    1.6250 ca        1 EZT     -0.096000
     26 C24        -3.9150    5.2240    0.9370 ca        1 EZT     -0.136000
     27 C25        -3.9400    5.2290   -0.4560 ca        1 EZT     -0.084000
     28 C26        -3.9010    4.0240   -1.1630 ca        1 EZT     -0.171300
     29 C27        -3.9100    4.0710   -2.6880 c3        1 EZT      0.689200
     30 F02        -4.1380    5.3150   -3.2270 f         1 EZT     -0.239633
     31 F03        -2.7250    3.6800   -3.2670 f         1 EZT     -0.239633
     32 F01        -4.8590    3.2810   -3.2900 f         1 EZT     -0.239633
     33 H181        0.8110   -0.3350    1.2970 hc        1 EZT      0.042700
     34 H182        0.1430    1.3370    1.0940 hc        1 EZT      0.042700
     35 H183        1.1040    0.5830   -0.2420 hc        1 EZT      0.042700
     36 H121       -2.9050   -0.7660    0.6280 hc        1 EZT      0.044200
     37 H122       -2.0530    0.3880    1.7330 hc        1 EZT      0.044200
     38 H111       -2.2450   -1.9470    2.6270 hc        1 EZT      0.044200
     39 H112       -0.5420   -1.3460    2.5430 hc        1 EZT      0.044200
     40 H9         -1.9700   -3.3120    0.6420 hc        1 EZT      0.054700
     41 H1         -1.5730   -3.4760    3.7310 ha        1 EZT      0.134000
     42 H2         -0.6930   -5.3480    5.1020 ha        1 EZT      0.149000
     43 HO3         1.6020   -7.6820    3.7930 ho        1 EZT      0.418000
     44 H4          1.6720   -6.6860    1.7310 ha        1 EZT      0.132000
     45 H61         0.9250   -5.8100   -0.5000 hc        1 EZT      0.051200
     46 H62         2.0610   -4.5140    0.0460 hc        1 EZT      0.051200
     47 H71        -0.7340   -4.2370   -1.2160 hc        1 EZT      0.045200
     48 H72         0.8420   -3.5270   -1.7460 hc        1 EZT      0.045200
     49 H8          0.9080   -2.1700    0.3970 hc        1 EZT      0.064700
     50 H14        -1.7250   -1.8440   -1.1750 hc        1 EZT      0.044700
     51 H151        1.0940   -0.9280   -1.9860 hc        1 EZT      0.046200
     52 H152       -0.2120   -1.6690   -2.9900 hc        1 EZT      0.046200
     53 H161        0.2260    1.1570   -2.5490 hc        1 EZT      0.055700
     54 H162       -1.2400    0.4130   -3.3030 hc        1 EZT      0.055700
     55 H17        -1.4130    2.7330   -1.4150 ho        1 EZT      0.409000
     56 H19        -3.1110   -0.2870   -1.9270 ha        1 EZT      0.133000
     57 H20        -4.8980    1.2570   -1.5190 ha        1 EZT      0.144000
     58 H22        -3.7450    1.8540    1.4650 ha        1 EZT      0.147000
     59 H23        -3.8210    4.0060    2.7260 ha        1 EZT      0.140000
     60 H24        -3.9470    6.1750    1.4890 ha        1 EZT      0.142000
     61 H25        -3.9910    6.1840   -1.0030 ha        1 EZT      0.152000
@<TRIPOS>BOND
     1    1    2 1   
     2    1   33 1   
     3    1   34 1   
     4    1   35 1   
     5    2    3 1   
     6    2   16 1   
     7    2   19 1   
     8    3    4 1   
     9    3   36 1   
    10    3   37 1   
    11    4    5 1   
    12    4   38 1   
    13    4   39 1   
    14    5    6 1   
    15    5   15 1   
    16    5   40 1   
    17    6    7 ar  
    18    6   12 ar  
    19    7    8 ar  
    20    7   41 1   
    21    8    9 ar  
    22    8   42 1   
    23    9   10 1   
    24    9   11 ar  
    25   10   43 1   
    26   11   12 ar  
    27   11   44 1   
    28   12   13 1   
    29   13   14 1   
    30   13   45 1   
    31   13   46 1   
    32   14   15 1   
    33   14   47 1   
    34   14   48 1   
    35   15   16 1   
    36   15   49 1   
    37   16   17 1   
    38   16   50 1   
    39   17   18 1   
    40   17   51 1   
    41   17   52 1   
    42   18   19 1   
    43   18   53 1   
    44   18   54 1   
    45   19   20 1   
    46   19   21 1   
    47   20   55 1   
    48   21   22 2   
    49   21   56 1   
    50   22   23 1   
    51   22   57 1   
    52   23   24 ar  
    53   23   28 ar  
    54   24   25 ar  
    55   24   58 1   
    56   25   26 ar  
    57   25   59 1   
    58   26   27 ar  
    59   26   60 1   
    60   27   28 ar  
    61   27   61 1   
    62   28   29 1   
    63   29   30 1   
    64   29   31 1   
    65   29   32 1   
@<TRIPOS>SUBSTRUCTURE
     1 EZT         1 TEMP              0 ****  ****    0 ROOT
