@<TRIPOS>MOLECULE
molecule
   61    65     1     0     0
SMALL
bcc


@<TRIPOS>ATOM
      1 C18          1.5580     0.0000     0.0000 c3         1 EZT      -0.072100
      2 C13          0.0000     0.0000     0.0000 c3         1 EZT      -0.045000
      3 C12         -0.4810     0.0000     1.4610 c3         1 EZT      -0.062400
      4 C11         -0.1600    -1.3260     2.1790 c3         1 EZT      -0.068400
      5 C9          -0.6550    -2.5800     1.4100 c3         1 EZT      -0.014400
      6 C10         -0.3240    -3.9160     2.0690 ca         1 EZT      -0.072300
      7 C1          -0.2770    -4.0440     3.4690 ca         1 EZT      -0.114000
      8 C2          -0.0150    -5.2740     4.0760 ca         1 EZT      -0.161000
      9 C3           0.1920    -6.4050     3.2970 ca         1 EZT       0.103100
     10 O3           0.4510    -7.6040     3.8860 oh         1 EZT      -0.522100
     11 C4           0.1290    -6.3070     1.9100 ca         1 EZT      -0.151000
     12 C5          -0.1440    -5.0770     1.2860 ca         1 EZT      -0.062300
     13 C6          -0.1790    -5.0480    -0.2220 c3         1 EZT      -0.032100
     14 C7          -0.7650    -3.7650    -0.8050 c3         1 EZT      -0.072400
     15 C8          -0.1840    -2.5510    -0.0760 c3         1 EZT      -0.049700
     16 C14         -0.6190    -1.2250    -0.7080 c3         1 EZT      -0.067700
     17 C15         -0.3110    -0.9800    -2.1830 c3         1 EZT      -0.070400
     18 C16         -0.3430     0.5540    -2.3420 c3         1 EZT      -0.111400
     19 C17         -0.5200     1.1490    -0.9190 c3         1 EZT       0.197000
     20 O17          0.2740     2.3230    -0.7790 oh         1 EZT      -0.603800
     21 C19         -1.9520     1.5480    -0.6860 c2         1 EZT      -0.147200
     22 C20         -2.3330     2.8030    -0.4030 ce         1 EZT      -0.141200
     23 C21         -3.7190     3.2360    -0.1580 ca         1 EZT       0.008200
     24 C22         -4.2050     3.1770     1.1400 ca         1 EZT      -0.126000
     25 C23         -5.5140     3.5800     1.4020 ca         1 EZT      -0.098000
     26 C24         -6.3240     4.0380     0.3620 ca         1 EZT      -0.139000
     27 C25         -5.8250     4.0910    -0.9400 ca         1 EZT      -0.082000
     28 C26         -4.5140     3.6880    -1.2010 ca         1 EZT      -0.179300
     29 C27         -4.0120     3.7610    -2.6080 c3         1 EZT       0.706200
     30 F02         -4.9400     4.2310    -3.4920 f          1 EZT      -0.236300
     31 F03         -2.9280     4.5740    -2.7560 f          1 EZT      -0.236300
     32 F01         -3.6300     2.5430    -3.0880 f          1 EZT      -0.236300
     33 H181         1.9190    -0.9070     0.4700 hc         1 EZT       0.040033
     34 H182         1.9190     0.0460    -1.0200 hc         1 EZT       0.040033
     35 H183         1.9190     0.8610     0.5500 hc         1 EZT       0.040033
     36 H121         0.0050     0.8110     1.9900 hc         1 EZT       0.046700
     37 H122        -1.5530     0.1560     1.4770 hc         1 EZT       0.046700
     38 H111        -0.6500    -1.3110     3.1450 hc         1 EZT       0.046200
     39 H112         0.9160    -1.3990     2.2810 hc         1 EZT       0.046200
     40 H9          -1.7360    -2.5130     1.3880 hc         1 EZT       0.050700
     41 H1          -0.4480    -3.1720     4.0880 ha         1 EZT       0.133000
     42 H2           0.0270    -5.3470     5.1560 ha         1 EZT       0.138000
     43 HO3         -0.3570    -7.9930     4.1760 ho         1 EZT       0.417000
     44 H4           0.2910    -7.1900     1.3030 ha         1 EZT       0.140000
     45 H61         -0.7740    -5.8840    -0.5680 hc         1 EZT       0.051200
     46 H62          0.8330    -5.1620    -0.5910 hc         1 EZT       0.051200
     47 H71         -1.8410    -3.7750    -0.6840 hc         1 EZT       0.045700
     48 H72         -0.5160    -3.7030    -1.8570 hc         1 EZT       0.045700
     49 H8           0.8970    -2.6120    -0.1020 hc         1 EZT       0.058700
     50 H14         -1.6940    -1.1570    -0.5900 hc         1 EZT       0.048700
     51 H151         0.6720    -1.3620    -2.4300 hc         1 EZT       0.048200
     52 H152        -1.0690    -1.4380    -2.8060 hc         1 EZT       0.048200
     53 H161        -1.1770     0.8430    -2.9700 hc         1 EZT       0.056200
     54 H162         0.5890     0.9000    -2.7730 hc         1 EZT       0.056200
     55 H17          0.5280     2.6340    -1.6310 ho         1 EZT       0.408000
     56 H19         -2.7100     0.7760    -0.7450 ha         1 EZT       0.128000
     57 H20         -1.5650     3.5640    -0.3400 ha         1 EZT       0.157000
     58 H22         -3.5730     2.8210     1.9440 ha         1 EZT       0.147000
     59 H23         -5.9020     3.5380     2.4120 ha         1 EZT       0.137000
     60 H24         -7.3410     4.3510     0.5650 ha         1 EZT       0.140000
     61 H25         -6.4530     4.4460    -1.7470 ha         1 EZT       0.150000
@<TRIPOS>BOND
     1     1     2 1
     2     1    33 1
     3     1    34 1
     4     1    35 1
     5     2     3 1
     6     2    16 1
     7     2    19 1
     8     3     4 1
     9     3    36 1
    10     3    37 1
    11     4     5 1
    12     4    38 1
    13     4    39 1
    14     5     6 1
    15     5    15 1
    16     5    40 1
    17     6     7 ar
    18     6    12 ar
    19     7     8 ar
    20     7    41 1
    21     8     9 ar
    22     8    42 1
    23     9    10 1
    24     9    11 ar
    25    10    43 1
    26    11    12 ar
    27    11    44 1
    28    12    13 1
    29    13    14 1
    30    13    45 1
    31    13    46 1
    32    14    15 1
    33    14    47 1
    34    14    48 1
    35    15    16 1
    36    15    49 1
    37    16    17 1
    38    16    50 1
    39    17    18 1
    40    17    51 1
    41    17    52 1
    42    18    19 1
    43    18    53 1
    44    18    54 1
    45    19    20 1
    46    19    21 1
    47    20    55 1
    48    21    22 2
    49    21    56 1
    50    22    23 1
    51    22    57 1
    52    23    24 ar
    53    23    28 ar
    54    24    25 ar
    55    24    58 1
    56    25    26 ar
    57    25    59 1
    58    26    27 ar
    59    26    60 1
    60    27    28 ar
    61    27    61 1
    62    28    29 1
    63    29    30 1
    64    29    31 1
    65    29    32 1
@<TRIPOS>SUBSTRUCTURE
     1 EZT         1 TEMP              0 ****  ****    0 ROOT
