@<TRIPOS>MOLECULE
molecule
   57    62     1     0     0
SMALL
bcc


@<TRIPOS>ATOM
      1 C1           0.0000     0.0000     0.0000 ca         1 EZV      -0.166000
      2 C2           1.4000     0.0000     0.0000 cp         1 EZV       0.019000
      3 C3           2.1010     0.0000     1.1980 ca         1 EZV      -0.161000
      4 C4           1.4050     0.0010     2.4020 ca         1 EZV      -0.018200
      5 C5          -0.0010     0.0020     2.3910 ca         1 EZV      -0.216900
      6 C6          -0.6910     0.0010     1.1750 ca         1 EZV      -0.037000
      7 N7           1.7950     0.0020     3.7190 na         1 EZV      -0.047100
      8 N8           0.6610     0.0040     4.5360 nc         1 EZV      -0.505100
      9 C9          -0.4240     0.0030     3.7970 cd         1 EZV       0.363600
     10 C10         -1.8170     0.0040     4.2890 cd         1 EZV       0.420500
     11 N11         -2.8860     0.0030     3.5290 nc         1 EZV      -0.593100
     12 C12         -3.9970     0.0030     4.3060 ca         1 EZV       0.092400
     13 C13         -3.5680     0.0050     5.6440 ca         1 EZV      -0.065200
     14 N14         -2.1860     0.0010     5.6070 na         1 EZV      -0.234300
     15 C15         -5.3680     0.0030     4.0230 ca         1 EZV      -0.073000
     16 C16         -6.2770     0.0040     5.0410 ca         1 EZV      -0.139000
     17 C17         -5.8590     0.0060     6.3650 ca         1 EZV      -0.147000
     18 C18         -4.5080     0.0060     6.6720 ca         1 EZV       0.084600
     19 C19          2.1380    -0.0010    -1.2860 cp         1 EZV      -0.050000
     20 N20         -4.0910     0.0070     8.0070 nh         1 EZV      -0.627000
     21 C21         -4.5890    -1.1800     8.7150 c3         1 EZV       0.168800
     22 C22         -4.0460    -1.1830    10.1470 c3         1 EZV       0.161800
     23 N23         -4.4670     0.0490    10.8290 n3         1 EZV      -0.734600
     24 C24         -3.9700     1.2360    10.1200 c3         1 EZV       0.161800
     25 C25         -4.5120     1.2390     8.6890 c3         1 EZV       0.168800
     26 C26         -4.0290     0.0500    12.2300 c3         1 EZV       0.153100
     27 C27          1.4380    -0.0020    -2.4920 ca         1 EZV      -0.111000
     28 C28          2.1250    -0.0030    -3.6870 ca         1 EZV      -0.144500
     29 C29          3.5160    -0.0030    -3.6910 ca         1 EZV       0.169600
     30 C30          4.2150    -0.0030    -2.4890 ca         1 EZV      -0.144500
     31 C31          3.5320     0.0040    -1.2920 ca         1 EZV      -0.111000
     32 N32          4.2100    -0.0040    -4.9010 nv         1 EZV      -0.992200
     33 H1          -0.5380    -0.0000    -0.9400 ha         1 EZV       0.138000
     34 H3           3.1850     0.0000     1.1960 ha         1 EZV       0.135000
     35 H6          -1.7740     0.0010     1.1660 ha         1 EZV       0.161000
     36 HN7          2.7430     0.0030     4.0430 hn         1 EZV       0.335700
     37 HN14        -1.5770    -0.1440     6.3880 hn         1 EZV       0.322700
     38 H15         -5.7070     0.0010     2.9940 ha         1 EZV       0.142000
     39 H16         -7.3360     0.0040     4.8140 ha         1 EZV       0.134000
     40 H17         -6.5930     0.0070     7.1610 ha         1 EZV       0.139000
     41 H21         -4.2530    -2.0730     8.2010 h1         1 EZV       0.047200
     42 H21A        -5.6720    -1.1570     8.7400 h1         1 EZV       0.047200
     43 H22         -2.9640    -1.2290    10.1220 h1         1 EZV       0.041200
     44 H22A        -4.4370    -2.0420    10.6790 h1         1 EZV       0.041200
     45 H24         -4.3060     2.1290    10.6340 h1         1 EZV       0.041200
     46 H24A        -2.8880     1.2130    10.0950 h1         1 EZV       0.041200
     47 H25         -4.1210     2.0970     8.1570 h1         1 EZV       0.047200
     48 H25A        -5.5950     1.2850     8.7140 h1         1 EZV       0.047200
     49 H26         -4.3800     0.9510    12.7180 h1         1 EZV       0.032367
     50 H26A        -4.4360    -0.8170    12.7370 h1         1 EZV       0.032367
     51 H26B        -2.9470     0.0160    12.2700 h1         1 EZV       0.032367
     52 H27          0.3550    -0.0020    -2.4900 ha         1 EZV       0.133500
     53 H28          1.5820    -0.0040    -4.6240 ha         1 EZV       0.136500
     54 H30          5.2980    -0.0010    -2.4930 ha         1 EZV       0.136500
     55 H31          4.0780     0.0040    -0.3570 ha         1 EZV       0.133500
     56 HN32         4.4590     0.8620    -5.3360 hn         1 EZV       0.428800
     57 HN3A         4.4590    -0.8720    -5.3340 hn         1 EZV       0.428800
@<TRIPOS>BOND
     1     1     2 ar
     2     1     6 ar
     3     2     3 ar
     4     2    19 1
     5     3     4 ar
     6     4     5 ar
     7     4     7 1
     8     5     6 ar
     9     5     9 1
    10     7     8 1
    11     8     9 2
    12     9    10 1
    13    10    11 2
    14    10    14 1
    15    11    12 1
    16    12    13 ar
    17    12    15 ar
    18    13    14 1
    19    13    18 ar
    20    15    16 ar
    21    16    17 ar
    22    17    18 ar
    23    18    20 1
    24    19    27 ar
    25    19    31 ar
    26    20    21 1
    27    20    25 1
    28    21    22 1
    29    22    23 1
    30    23    24 1
    31    23    26 1
    32    24    25 1
    33    27    28 ar
    34    28    29 ar
    35    29    30 ar
    36    29    32 1
    37    30    31 ar
    38     1    33 1
    39     3    34 1
    40     6    35 1
    41     7    36 1
    42    14    37 1
    43    15    38 1
    44    16    39 1
    45    17    40 1
    46    21    41 1
    47    21    42 1
    48    22    43 1
    49    22    44 1
    50    24    45 1
    51    24    46 1
    52    25    47 1
    53    25    48 1
    54    26    49 1
    55    26    50 1
    56    26    51 1
    57    27    52 1
    58    28    53 1
    59    30    54 1
    60    31    55 1
    61    32    56 1
    62    32    57 1
@<TRIPOS>SUBSTRUCTURE
     1 EZV         1 TEMP              0 ****  ****    0 ROOT
