@<TRIPOS>MOLECULE
molecule
   50    55     1     0     0
SMALL
bcc


@<TRIPOS>ATOM
      1 CAA          0.0000     0.0000     0.0000 ca         1 EZW      -0.111000
      2 CAB          1.3630     0.0000     0.0000 ca         1 EZW      -0.121000
      3 CAC          2.0790     0.0000     1.1950 ca         1 EZW      -0.119000
      4 CAD          1.4380     0.0030     2.3960 ca         1 EZW      -0.114000
      5 CAE          0.0340     0.0060     2.4360 ca         1 EZW      -0.028000
      6 CAF         -0.6950     0.0060     1.2200 ca         1 EZW      -0.033000
      7 CAG         -0.6620     0.0200     3.6560 ca         1 EZW      -0.117000
      8 CAH         -2.0290     0.0250     3.6620 ca         1 EZW      -0.075500
      9 CAI         -2.7520     0.0050     2.4600 ca         1 EZW       0.364900
     10 CAJ         -2.1000     0.0010     1.2570 ca         1 EZW      -0.172300
     11 CAL         -3.8880    -0.5680     5.1940 cc         1 EZW      -0.092300
     12 CAM         -4.6920    -1.3930     4.2860 cd         1 EZW       0.121100
     13 CAN         -4.7690    -1.0800     2.9640 cc         1 EZW       0.334800
     14 CAP         -2.2740     0.7270     6.0100 cc         1 EZW      -0.137300
     15 CAQ         -3.1690     0.5350     7.0030 cd         1 EZW      -0.199000
     16 CAR         -4.1960    -0.2820     6.5070 cd         1 EZW      -0.161000
     17 CAS         -5.5860    -1.9080     2.0690 ca         1 EZW      -0.139500
     18 CAU         -4.6200    -3.4940     5.2240 c          1 EZW       0.624100
     19 CAV         -5.2880    -4.6760     5.8770 c3         1 EZW      -0.135100
     20 CAX         -5.3520    -3.2760     1.9540 ca         1 EZW      -0.101000
     21 CAY         -6.1290    -4.0520     1.1060 ca         1 EZW      -0.126000
     22 CAZ         -7.1380    -3.5180     0.3620 ca         1 EZW      -0.153300
     23 CBA         -7.4310    -2.1460     0.4270 ca         1 EZW       0.415600
     24 CBB         -6.6680    -1.3150     1.2840 ca         1 EZW      -0.133300
     25 CBD         -8.6970    -0.3340    -0.2430 ca         1 EZW       0.430200
     26 CBE         -7.9790     0.5340     0.5740 ca         1 EZW      -0.259300
     27 CBF         -6.9590     0.0530     1.3500 ca         1 EZW      -0.066000
     28 NAK         -2.7020     0.0570     4.8950 na         1 EZW       0.046800
     29 NBC         -8.4200    -1.6150    -0.3020 nb         1 EZW      -0.683000
     30 OAO         -4.1070    -0.0140     2.4620 os         1 EZW      -0.496600
     31 OAT         -5.3610    -2.4740     4.7640 os         1 EZW      -0.319200
     32 OAW         -3.4130    -3.4640     5.1150 o          1 EZW      -0.524000
     33 HAA         -0.5440     0.0000    -0.9370 ha         1 EZW       0.137000
     34 HAB          1.8960    -0.0020    -0.9430 ha         1 EZW       0.133000
     35 HAC          3.1620    -0.0000     1.1680 ha         1 EZW       0.132000
     36 HAD          2.0080     0.0030     3.3170 ha         1 EZW       0.136000
     37 HAG         -0.1170    -0.0280     4.5910 ha         1 EZW       0.151000
     38 HAJ         -2.6660     0.0290     0.3340 ha         1 EZW       0.156000
     39 HAP         -1.3680     1.3150     6.0830 h4         1 EZW       0.170000
     40 HAQ         -3.1300     0.9810     7.9900 ha         1 EZW       0.152000
     41 HAR         -5.0680    -0.6230     7.0530 ha         1 EZW       0.156000
     42 HAW         -5.0790    -4.6670     6.9400 hc         1 EZW       0.072700
     43 HAV         -6.3580    -4.6190     5.7190 hc         1 EZW       0.072700
     44 HAX         -4.9070    -5.5920     5.4420 hc         1 EZW       0.072700
     45 HAY         -4.5590    -3.7370     2.5300 ha         1 EZW       0.139000
     46 HAZ         -5.9280    -5.1140     1.0330 ha         1 EZW       0.134000
     47 HA0         -7.7210    -4.1590    -0.2880 ha         1 EZW       0.148000
     48 HBD         -9.5030     0.0590    -0.8510 h4         1 EZW       0.022100
     49 HBE         -8.2320     1.5870     0.6020 ha         1 EZW       0.139000
     50 HBF         -6.3890     0.7130     1.9920 ha         1 EZW       0.157000
@<TRIPOS>BOND
     1    25    29 ar
     2    25    26 ar
     3    29    23 ar
     4    26    27 ar
     5    23    22 ar
     6    23    24 ar
     7    27    24 ar
     8    22    21 ar
     9    24    17 ar
    10    21    20 ar
    11    17    20 ar
    12    17    13 1
    13    13    30 1
    14    13    12 2
    15    31    12 1
    16    31    18 1
    17    30     9 1
    18    12    11 1
    19    32    18 2
    20    18    19 1
    21    11    16 2
    22    11    28 1
    23    16    15 1
    24     9    10 ar
    25     9     8 ar
    26    10     6 ar
    27    28     8 1
    28    28    14 1
    29    15    14 2
    30     8     7 ar
    31     6     1 ar
    32     6     5 ar
    33     1     2 ar
    34     7     5 ar
    35     5     4 ar
    36     2     3 ar
    37     4     3 ar
    38     1    33 1
    39     2    34 1
    40     3    35 1
    41     4    36 1
    42     7    37 1
    43    10    38 1
    44    14    39 1
    45    15    40 1
    46    16    41 1
    47    19    42 1
    48    19    43 1
    49    19    44 1
    50    20    45 1
    51    21    46 1
    52    22    47 1
    53    25    48 1
    54    26    49 1
    55    27    50 1
@<TRIPOS>SUBSTRUCTURE
     1 EZW         1 TEMP              0 ****  ****    0 ROOT
