@<TRIPOS>MOLECULE
molecule
   24    24     1     0     0
SMALL
bcc


@<TRIPOS>ATOM
      1 N            0.0000     0.0000     0.0000 n7         1 EZY      -0.777200
      2 CA           1.4700     0.0000     0.0000 c3         1 EZY       0.051800
      3 C            1.9720     0.0000     1.4200 c          1 EZY       0.893600
      4 O            1.1870     0.0010     2.3390 o          1 EZY      -0.844300
      5 C01         -0.5260    -0.0010    -1.3710 c3         1 EZY       0.177100
      6 C02         -2.7190     1.1790    -1.1040 ca         1 EZY      -0.134200
      7 C03         -4.1010     1.1800    -1.0730 ca         1 EZY      -0.076000
      8 C04         -4.7970     0.0010    -1.2610 ca         1 EZY      -0.154000
      9 C05         -4.1120    -1.1790    -1.4820 ca         1 EZY      -0.098000
     10 C06         -2.7300    -1.1800    -1.5130 ca         1 EZY      -0.139000
     11 C07         -2.0330    -0.0000    -1.3300 ca         1 EZY      -0.001300
     12 O01         -0.7540     2.4410    -0.9340 o          1 EZY      -0.198000
     13 O02         -2.5750     3.4800    -0.7020 o          1 EZY      -0.198000
     14 H           -0.3340    -0.8090     0.4860 hn         1 EZY       0.354800
     15 HA2          1.8310     0.8840    -0.5110 h1         1 EZY       0.023700
     16 HA3          1.8310    -0.8840    -0.5110 h1         1 EZY       0.023700
     17 H08         -0.1790    -0.8860    -1.8900 h1         1 EZY       0.042200
     18 H05         -0.1790     0.8830    -1.8910 h1         1 EZY       0.042200
     19 H14         -4.6380     2.1040    -0.8970 ha         1 EZY       0.156000
     20 H10         -5.8800     0.0020    -1.2360 ha         1 EZY       0.132000
     21 H11         -4.6580    -2.1030    -1.6280 ha         1 EZY       0.128000
     22 H12         -2.1930    -2.1050    -1.6870 ha         1 EZY       0.144000
     23 OXT          3.2920    -0.0000     1.6660 o          1 EZY      -0.844300
     24 N01         -1.9720     2.4410    -0.9020 no         1 EZY       0.296200
@<TRIPOS>BOND
     1     8     7 ar
     2     8     9 ar
     3     7     6 ar
     4    12    24 1
     5     9    10 ar
     6     6    24 1
     7     6    11 ar
     8    24    13 1
     9    10    11 ar
    10    11     5 1
    11     5     1 1
    12     2     1 1
    13     2     3 1
    14     3     4 1
    15     1    14 1
    16     2    15 1
    17     2    16 1
    18     5    17 1
    19     5    18 1
    20     7    19 1
    21     8    20 1
    22     9    21 1
    23    10    22 1
    24     3    23 1
@<TRIPOS>SUBSTRUCTURE
     1 EZY         1 TEMP              0 ****  ****    0 ROOT
