@<TRIPOS>MOLECULE
F01
   31    32     1     0     0
SMALL
bcc


@<TRIPOS>ATOM
      1 O1           0.0000     0.0000     0.0000 o          1 F01      -0.565500
      2 C6           1.2200     0.0000     0.0000 c          1 F01       0.665900
      3 N1           1.8750     0.0000     1.1600 nc         1 F01      -0.460100
      4 C7           3.2010     0.0000     1.1890 cd         1 F01       0.249500
      5 N2           3.8660     0.0000     2.3940 nz         1 F01       0.200400
      6 C8           3.9260     0.0010    -0.0210 cd         1 F01      -0.139100
      7 F1           5.2770     0.0020    -0.0120 f          1 F01      -0.117500
      8 C9           3.2450     0.0020    -1.1930 cc         1 F01      -0.029400
      9 N3           1.8810    -0.0050    -1.1720 n          1 F01       0.154000
     10 C1           1.1330    -0.0110    -2.4320 c3         1 F01       0.179500
     11 O4           0.1830     1.0770    -2.4580 os         1 F01      -0.365600
     12 C4          -0.7990     0.7020    -3.4480 c3         1 F01       0.163100
     13 C5          -2.1000     1.4760    -3.2280 c3         1 F01       0.225400
     14 O5          -1.8760     2.8650    -3.4830 oh         1 F01      -0.585800
     15 C3          -1.0290    -0.8090    -3.2220 c3         1 F01       0.150100
     16 O3          -1.2140    -1.4790    -4.4710 oh         1 F01      -0.546800
     17 C2           0.2710    -1.2890    -2.5380 c3         1 F01       0.120100
     18 O2           0.9290    -2.2690    -3.3440 oh         1 F01      -0.547800
     19 HN2          4.4400     0.8180     2.4580 hn         1 F01       0.226467
     20 HN2A         3.2010    -0.0000     3.1420 hn         1 F01       0.226467
     21 H9           3.7790     0.0000    -2.1360 h4         1 F01       0.177000
     22 H1           1.8060     0.0590    -3.2770 h2         1 F01       0.069700
     23 H4          -0.4120     0.8770    -4.4440 h1         1 F01       0.056700
     24 H5          -2.4300     1.3460    -2.2050 h1         1 F01       0.002700
     25 H5A         -2.8600     1.1040    -3.9040 h1         1 F01       0.002700
     26 HO5         -2.6920     3.3320    -3.4180 ho         1 F01       0.403000
     27 H3          -1.8790    -0.9680    -2.5700 h1         1 F01       0.029700
     28 HO3         -1.9940    -2.0070    -4.4320 ho         1 F01       0.400000
     29 H2           0.0560    -1.6820    -1.5520 h1         1 F01       0.031700
     30 HO2          0.9240    -3.0990    -2.8950 ho         1 F01       0.398000
     31 H23          4.4360    -0.8200     2.4600 hn         1 F01       0.226467
@<TRIPOS>BOND
     1     1     2 2   
     2     2     3 1   
     3     2     9 1   
     4     3     4 2   
     5     4     5 1   
     6     4     6 1   
     7     5    19 1   
     8     5    20 1   
     9     5    31 1   
    10     6     7 1   
    11     6     8 2   
    12     8     9 1   
    13     8    21 1   
    14     9    10 1   
    15    10    11 1   
    16    10    17 1   
    17    10    22 1   
    18    11    12 1   
    19    12    13 1   
    20    12    15 1   
    21    12    23 1   
    22    13    14 1   
    23    13    24 1   
    24    13    25 1   
    25    14    26 1   
    26    15    16 1   
    27    15    17 1   
    28    15    27 1   
    29    16    28 1   
    30    17    18 1   
    31    17    29 1   
    32    18    30 1   
@<TRIPOS>SUBSTRUCTURE
     1 F01         1 TEMP              0 ****  ****    0 ROOT
