@<TRIPOS>MOLECULE
molecule
   33    33     1     0     0
SMALL
bcc


@<TRIPOS>ATOM
      1 C1           0.0000     0.0000     0.0000 ca         1 F02      -0.017500
      2 C2           1.3980     0.0000     0.0000 ca         1 F02      -0.255600
      3 C3           2.0940     0.0000     1.2120 ca         1 F02      -0.017500
      4 C4           1.4020     0.0010     2.4010 ca         1 F02      -0.218000
      5 C5           0.0100     0.0010     2.3990 ca         1 F02       0.263600
      6 C6          -0.6860     0.0010     1.1930 ca         1 F02      -0.218000
      7 N7          -0.6860    -0.0010     3.6020 nh         1 F02      -0.694000
      8 C8          -2.1510    -0.0010     3.6010 c3         1 F02       0.219800
      9 C9          -2.6610    -1.4430     3.5990 c3         1 F02      -0.121100
     10 C10          0.0460    -0.0000     4.8710 c3         1 F02       0.219800
     11 C11          0.3000     1.4420     5.3130 c3         1 F02      -0.121100
     12 C12          2.1360    -0.0010    -1.2770 c          1 F02       0.690700
     13 O13          1.5290    -0.0010    -2.3310 o          1 F02      -0.575100
     14 N14          3.4840    -0.0010    -1.2770 ns         1 F02      -0.531300
     15 N15          4.1680    -0.0010    -2.4580 nz         1 F02      -0.532600
     16 H1          -0.5420    -0.0000    -0.9380 ha         1 F02       0.133500
     17 H3           3.1770     0.0000     1.2150 ha         1 F02       0.133500
     18 H4           1.9420     0.0010     3.3410 ha         1 F02       0.156500
     19 H6          -1.7700     0.0010     1.1940 ha         1 F02       0.156500
     20 H8          -2.5130     0.5080     4.4860 h1         1 F02       0.061200
     21 H8A         -2.5120     0.5100     2.7170 h1         1 F02       0.061200
     22 H9          -1.8530    -2.1120     3.3270 hc         1 F02       0.049367
     23 H9A         -3.0230    -1.7000     4.5870 hc         1 F02       0.049367
     24 H9B         -3.4670    -1.5410     2.8820 hc         1 F02       0.049367
     25 H10         -0.5400    -0.5110     5.6260 h1         1 F02       0.061200
     26 H10A         0.9920    -0.5100     4.7420 h1         1 F02       0.061200
     27 H11          1.3220     1.5390     5.6590 hc         1 F02       0.049367
     28 H11A        -0.3790     1.6970     6.1180 hc         1 F02       0.049367
     29 H11B         0.1360     2.1100     4.4770 hc         1 F02       0.049367
     30 HN14         3.9840    -0.0010    -0.4100 hn         1 F02       0.387500
     31 HN15         5.1520    -0.0010    -2.2740 hn         1 F02       0.466133
     32 HN1A         3.9260     0.8160    -2.9840 hn         1 F02       0.466133
     33 H153         3.9270    -0.8190    -2.9830 hn         1 F02       0.466133
@<TRIPOS>BOND
     1     1     2 ar
     2     1     6 ar
     3     2     3 ar
     4     2    12 1
     5     3     4 ar
     6     4     5 ar
     7     5     6 ar
     8     5     7 1
     9     7     8 1
    10     7    10 1
    11     8     9 1
    12    10    11 1
    13    12    13 2
    14    12    14 1
    15    14    15 1
    16     1    16 1
    17     3    17 1
    18     4    18 1
    19     6    19 1
    20     8    20 1
    21     8    21 1
    22     9    22 1
    23     9    23 1
    24     9    24 1
    25    10    25 1
    26    10    26 1
    27    11    27 1
    28    11    28 1
    29    11    29 1
    30    14    30 1
    31    15    31 1
    32    15    32 1
    33    33    15 1
@<TRIPOS>SUBSTRUCTURE
     1 F02         1 TEMP              0 ****  ****    0 ROOT
