@<TRIPOS>MOLECULE
F03
   24    25     1     0     0
SMALL
bcc


@<TRIPOS>ATOM
      1 C1           0.0000     0.0000     0.0000 c3         1 F03      -0.066100
      2 C2           1.5070     0.0000     0.0000 c          1 F03       0.544100
      3 O3           2.1130     0.0000     1.0500 o          1 F03      -0.542100
      4 N4           2.1800    -0.0010    -1.1670 ns         1 F03      -0.054400
      5 C5           3.5600    -0.0020    -1.1670 cc         1 F03       0.205500
      6 N6           4.2090    -0.0020    -2.3670 ns         1 F03      -0.038400
      7 C7           5.5610    -0.0020    -2.4170 c          1 F03       0.634100
      8 O8           6.1530    -0.0030    -3.4810 o          1 F03      -0.665500
      9 C9           6.2870    -0.0020    -1.1400 ca         1 F03      -0.232600
     10 C10          7.6810    -0.0010    -1.0850 ca         1 F03      -0.014000
     11 C11          8.3060     0.0000     0.1320 ca         1 F03      -0.136000
     12 C12          7.5690     0.0010     1.3090 ca         1 F03      -0.062000
     13 C13          6.2030     0.0000     1.2830 ca         1 F03      -0.097000
     14 C14          5.5350    -0.0010     0.0560 ca         1 F03       0.174400
     15 N15          4.1820     0.0040    -0.0180 nd         1 F03      -0.523100
     16 H11C        -0.3610    -0.8890    -0.5030 hc         1 F03       0.025033
     17 H12C        -0.3610     0.0080     1.0210 hc         1 F03       0.025033
     18 H13C        -0.3610     0.8800    -0.5180 hc         1 F03       0.025033
     19 H4           1.6800    -0.0120    -2.0340 hn         1 F03       0.167500
     20 H6           3.6810    -0.0020    -3.2170 hn         1 F03       0.175500
     21 H10          8.2630    -0.0020    -1.9980 ha         1 F03       0.122000
     22 H11          9.3880     0.0010     0.1780 ha         1 F03       0.106000
     23 H12          8.0850     0.0020     2.2610 ha         1 F03       0.101000
     24 H13          5.6400     0.0010     2.2090 ha         1 F03       0.126000
@<TRIPOS>BOND
     1     1     2 1   
     2     1    16 1   
     3     1    17 1   
     4     1    18 1   
     5     2     3 2   
     6     2     4 1   
     7     4     5 1   
     8     4    19 1   
     9     5     6 1   
    10     5    15 2   
    11     6     7 1   
    12     6    20 1   
    13     7     8 2   
    14     7     9 1   
    15     9    10 ar  
    16     9    14 ar  
    17    10    11 ar  
    18    10    21 1   
    19    11    12 ar  
    20    11    22 1   
    21    12    13 ar  
    22    12    23 1   
    23    13    14 ar  
    24    13    24 1   
    25    14    15 1   
@<TRIPOS>SUBSTRUCTURE
     1 F03         1 TEMP              0 ****  ****    0 ROOT
