@<TRIPOS>MOLECULE
molecule
   26    27     1     0     0
SMALL
bcc


@<TRIPOS>ATOM
      1 C1           0.0000     0.0000     0.0000 c3         1 F04      -0.113100
      2 C2           1.5310     0.0000     0.0000 c3         1 F04       0.126000
      3 N3           2.0190     0.0000     1.3820 n          1 F04      -0.215800
      4 C4           2.2370    -1.1790     2.0010 c          1 F04       0.686100
      5 O5           2.0330    -2.2310     1.4230 o          1 F04      -0.636500
      6 C6           2.7260    -1.1680     3.3850 ca         1 F04      -0.133600
      7 C7           2.9760    -2.3460     4.0900 ca         1 F04      -0.065000
      8 C8           3.4340    -2.2730     5.3870 ca         1 F04      -0.133000
      9 C9           3.6490    -1.0430     5.9950 ca         1 F04      -0.105000
     10 C10          3.4110     0.1240     5.3240 ca         1 F04      -0.119000
     11 C11          2.9460     0.0810     4.0080 ca         1 F04      -0.137900
     12 C12          2.6770     1.3000     3.2450 cc         1 F04       0.391900
     13 N13          2.2500     1.2180     2.0200 nd         1 F04      -0.447300
     14 C14          2.9000     2.6500     3.8770 c3         1 F04      -0.108400
     15 H11C        -0.3610     0.9620     0.3430 hc         1 F04       0.045033
     16 H12C        -0.3610    -0.1840    -1.0050 hc         1 F04       0.045033
     17 H13C        -0.3610    -0.7780     0.6610 hc         1 F04       0.045033
     18 H21C         1.8920    -0.8840    -0.5110 h1         1 F04       0.069200
     19 H22C         1.8920     0.8850    -0.5110 h1         1 F04       0.069200
     20 H7           2.8110    -3.3080     3.6220 ha         1 F04       0.160000
     21 H8           3.6300    -3.1850     5.9380 ha         1 F04       0.137000
     22 H9           4.0100    -1.0080     7.0160 ha         1 F04       0.134000
     23 H10          3.5820     1.0760     5.8100 ha         1 F04       0.138000
     24 H141         2.6720     3.4270     3.1580 hc         1 F04       0.056700
     25 H142         2.2540     2.7560     4.7400 hc         1 F04       0.056700
     26 H143         3.9350     2.7370     4.1870 hc         1 F04       0.056700
@<TRIPOS>BOND
     1     1     2 1
     2     2     3 1
     3     3     4 1
     4     3    13 1
     5     4     5 2
     6     4     6 1
     7     6     7 ar
     8     6    11 ar
     9     7     8 ar
    10     8     9 ar
    11     9    10 ar
    12    10    11 ar
    13    11    12 1
    14    12    13 2
    15    12    14 1
    16     1    15 1
    17     1    16 1
    18     1    17 1
    19     2    18 1
    20     2    19 1
    21     7    20 1
    22     8    21 1
    23     9    22 1
    24    10    23 1
    25    14    24 1
    26    14    25 1
    27    14    26 1
@<TRIPOS>SUBSTRUCTURE
     1 F04         1 TEMP              0 ****  ****    0 ROOT
