@<TRIPOS>MOLECULE
molecule
   18    19     1     0     0
SMALL
bcc


@<TRIPOS>ATOM
      1 C1           0.0000     0.0000     0.0000 ca         1 F05      -0.132000
      2 C2           1.4000     0.0000     0.0000 ca         1 F05      -0.147000
      3 C3           2.1160     0.0000     1.1520 ca         1 F05      -0.076000
      4 C4           1.4420     0.0020     2.3900 ca         1 F05      -0.109000
      5 C5          -0.0370     0.0030     2.3910 ca         1 F05      -0.097000
      6 C6          -0.7160     0.0080     1.1500 ca         1 F05      -0.096000
      7 C7          -0.4160     0.0050     3.7110 cc         1 F05      -0.184100
      8 N8           0.7090     0.0050     4.4890 na         1 F05      -0.117500
      9 C9           1.8260     0.0030     3.7200 cc         1 F05       0.099900
     10 N10          3.1350     0.0020     4.1880 nv         1 F05      -0.948600
     11 H1          -0.5260    -0.0000    -0.9470 ha         1 F05       0.120000
     12 H2           1.9270    -0.0070    -0.9470 ha         1 F05       0.121000
     13 H3           3.1980     0.0000     1.1200 ha         1 F05       0.125000
     14 H6          -1.7980     0.0080     1.1200 ha         1 F05       0.122000
     15 H7          -1.4370     0.0060     4.0750 h4         1 F05       0.169000
     16 HN10         3.6000    -0.8650     4.3720 hn         1 F05       0.429800
     17 HN1A         3.6010     0.8690     4.3700 hn         1 F05       0.429800
     18 HN8          0.7070     0.0060     5.4900 hn         1 F05       0.290700
@<TRIPOS>BOND
     1     6     1 ar
     2     1     2 ar
     3     1    11 1
     4     3     2 ar
     5     2    12 1
     6     4     3 ar
     7     3    13 1
     8     9     4 2
     9     5     4 ar
    10     7     5 2
    11     5     6 ar
    12     6    14 1
    13     8     7 1
    14     7    15 1
    15     8     9 1
    16     9    10 1
    17    10    16 1
    18    10    17 1
    19     8    18 1
@<TRIPOS>SUBSTRUCTURE
     1 F05         1 TEMP              0 ****  ****    0 ROOT
