@<TRIPOS>MOLECULE
F06
   22    22     1     0     0
SMALL
bcc


@<TRIPOS>ATOM
      1 C1           0.0000     0.0000     0.0000 ca         1 F06      -0.015600
      2 Cl2         -0.8690     0.0000    -1.5030 cl         1 F06      -0.002400
      3 C3           1.3830     0.0000     0.0000 ca         1 F06      -0.084000
      4 C4           2.0730     0.0000     1.1980 ca         1 F06      -0.045000
      5 C5           1.3820     0.0020     2.3950 ca         1 F06      -0.087000
      6 C6           0.0000     0.0020     2.3960 ca         1 F06      -0.060000
      7 C7          -0.6920     0.0070     1.1990 ca         1 F06      -0.132300
      8 C8          -2.1990     0.0080     1.1990 c3         1 F06       0.160000
      9 S9          -2.8010     1.7150     1.2060 ss         1 F06      -0.238300
     10 C10         -4.5390     1.4260     1.2050 c2         1 F06       0.153100
     11 N11         -5.4130     2.4880     1.2100 nz         1 F06       0.214400
     12 N12         -4.9970     0.2050     1.2010 n2         1 F06      -0.508100
     13 H3           1.9250    -0.0010    -0.9380 ha         1 F06       0.131000
     14 H4           3.1570    -0.0000     1.1980 ha         1 F06       0.121000
     15 H5           1.9240    -0.0000     3.3330 ha         1 F06       0.122000
     16 H6          -0.5410     0.0060     3.3340 ha         1 F06       0.112000
     17 H8          -2.5600    -0.4990     0.3130 h1         1 F06       0.056700
     18 H8A         -2.5600    -0.5060     2.0820 h1         1 F06       0.056700
     19 HN11        -5.9870     2.4440     2.0290 hn         1 F06       0.221467
     20 HN1A        -4.8970     3.3460     1.2110 hn         1 F06       0.221467
     21 HN12        -4.3630    -0.5690     1.1970 hn         1 F06       0.382400
     22 H113        -5.9920     2.4480     0.3950 hn         1 F06       0.221467
@<TRIPOS>BOND
     1     1     2 1   
     2     1     3 ar  
     3     1     7 ar  
     4     3     4 ar  
     5     3    13 1   
     6     4     5 ar  
     7     4    14 1   
     8     5     6 ar  
     9     5    15 1   
    10     6     7 ar  
    11     6    16 1   
    12     7     8 1   
    13     8     9 1   
    14     8    17 1   
    15     8    18 1   
    16     9    10 1   
    17    10    11 1   
    18    10    12 2   
    19    11    19 1   
    20    11    20 1   
    21    11    22 1   
    22    12    21 1   
@<TRIPOS>SUBSTRUCTURE
     1 F06         1 TEMP              0 ****  ****    0 ROOT
