@<TRIPOS>MOLECULE
molecule
   22    22     1     0     0
SMALL
bcc


@<TRIPOS>ATOM
      1 C1           0.0000     0.0000     0.0000 ca         1 F06       0.048400
      2 Cl2         -0.8690     0.0000    -1.5030 cl         1 F06      -0.094400
      3 C3           1.3830     0.0000     0.0000 ca         1 F06      -0.113000
      4 C4           2.0730     0.0000     1.1980 ca         1 F06      -0.084000
      5 C5           1.3820     0.0020     2.3950 ca         1 F06      -0.120000
      6 C6           0.0000     0.0020     2.3960 ca         1 F06      -0.094000
      7 C7          -0.6920     0.0070     1.1990 ca         1 F06      -0.120300
      8 C8          -2.1990     0.0080     1.1990 c3         1 F06       0.070000
      9 S9          -2.8010     1.7150     1.2060 ss         1 F06      -0.106300
     10 C10         -4.5390     1.4260     1.2050 c2         1 F06       0.463100
     11 N11         -5.4130     2.4880     1.2100 nz         1 F06      -0.786600
     12 N12         -4.9970     0.2050     1.2010 n2         1 F06      -0.717100
     13 H3           1.9250    -0.0010    -0.9380 ha         1 F06       0.162000
     14 H4           3.1570    -0.0000     1.1980 ha         1 F06       0.156000
     15 H5           1.9240    -0.0000     3.3330 ha         1 F06       0.153000
     16 H6          -0.5410     0.0060     3.3340 ha         1 F06       0.142000
     17 H8          -2.5600    -0.4990     0.3130 h1         1 F06       0.103700
     18 H8A         -2.5600    -0.5060     2.0820 h1         1 F06       0.103700
     19 HN11        -4.8970     3.3460     1.2130 hn         1 F06       0.466467
     20 HN1A        -5.9890     2.4430     2.0280 hn         1 F06       0.466467
     21 HN12        -5.9850     0.0400     1.2010 hn         1 F06       0.433400
     22 H113        -5.9900     2.4500     0.3930 hn         1 F06       0.466467
@<TRIPOS>BOND
     1     7     1 ar
     2     3     1 ar
     3     1     2 1
     4     4     3 ar
     5     3    13 1
     6     5     4 ar
     7     4    14 1
     8     5     6 ar
     9     5    15 1
    10     6     7 ar
    11     6    16 1
    12     7     8 1
    13     8     9 1
    14     8    17 1
    15     8    18 1
    16     9    10 1
    17    12    10 2
    18    10    11 1
    19    11    19 1
    20    11    20 1
    21    12    21 1
    22    22    11 1
@<TRIPOS>SUBSTRUCTURE
     1 F06         1 TEMP              0 ****  ****    0 ROOT
