@<TRIPOS>MOLECULE
molecule
   19    21     1     0     0
SMALL
bcc


@<TRIPOS>ATOM
      1 C1           0.0000     0.0000     0.0000 ca         1 F07      -0.285600
      2 C2           1.3640     0.0000     0.0000 ca         1 F07       0.420200
      3 N3           2.0630     0.0000     1.1250 nb         1 F07      -0.691000
      4 C4           1.4950     0.0000     2.3110 ca         1 F07       0.448200
      5 C5           0.1000     0.0000     2.4150 ca         1 F07      -0.250600
      6 C6          -0.6770     0.0000     1.2310 ca         1 F07       0.448600
      7 N7          -2.0120     0.0000     1.3040 nb         1 F07      -0.690000
      8 C8          -2.6440     0.0000     2.4460 ca         1 F07       0.494200
      9 C9          -1.9540    -0.0000     3.6860 ca         1 F07      -0.223100
     10 C10         -0.5590    -0.0000     3.6710 ca         1 F07       0.021900
     11 S11          0.0550    -0.0000     5.3160 ss         1 F07      -0.059500
     12 C12         -1.5630    -0.0000     5.9900 cc         1 F07      -0.092400
     13 C13         -2.4780     0.0010     5.0400 cd         1 F07      -0.114200
     14 H1          -0.5510     0.0000    -0.9320 ha         1 F07       0.157000
     15 H2           1.8900    -0.0000    -0.9470 h4         1 F07       0.026100
     16 H4           2.1060    -0.0000     3.2060 h4         1 F07       0.029100
     17 H8          -3.7270     0.0000     2.4470 h4         1 F07       0.028100
     18 H13         -3.5400     0.0010     5.2530 ha         1 F07       0.155000
     19 H12         -1.7830    -0.0010     7.0510 h4         1 F07       0.177000
@<TRIPOS>BOND
     1     1     2 ar
     2     1     6 ar
     3     2     3 ar
     4     3     4 ar
     5     4     5 ar
     6     5     6 ar
     7     5    10 ar
     8     6     7 ar
     9     7     8 ar
    10     8     9 ar
    11     9    10 ar
    12     9    13 1
    13    10    11 1
    14    11    12 1
    15    12    13 2
    16     1    14 1
    17     2    15 1
    18     4    16 1
    19     8    17 1
    20    13    18 1
    21    12    19 1
@<TRIPOS>SUBSTRUCTURE
     1 F07         1 TEMP              0 ****  ****    0 ROOT
