@<TRIPOS>MOLECULE
F07
   19    21     1     0     0
SMALL
bcc


@<TRIPOS>ATOM
      1 C1         -0.0010   -0.0010    0.0070 ca        1 F07     -0.273600
      2 C2          1.3860   -0.0010    0.0140 ca        1 F07      0.385200
      3 N3          2.1490    0.0000    1.1450 nb        1 F07     -0.658000
      4 C4          1.5160    0.0010    2.3120 ca        1 F07      0.418200
      5 C5          0.0970    0.0000    2.4450 ca        1 F07     -0.223600
      6 C6         -0.6960   -0.0010    1.2530 ca        1 F07      0.423600
      7 N7         -2.0880   -0.0010    1.2790 nb        1 F07     -0.666000
      8 C8         -2.6910   -0.0010    2.4460 ca        1 F07      0.475200
      9 C9         -1.9960    0.0000    3.6980 ca        1 F07     -0.218100
     10 C10        -0.5820    0.0010    3.6920 ca        1 F07     -0.063100
     11 S11         0.0140    0.0020    5.2580 ss        1 F07      0.111500
     12 C12        -1.5120    0.0020    5.9590 cc        1 F07     -0.182400
     13 C13        -2.5210    0.0010    5.0290 cd        1 F07     -0.105200
     14 H1         -0.5640   -0.0020   -0.9370 ha        1 F07      0.161000
     15 H2          1.9590   -0.0010   -0.9320 h4        1 F07      0.026100
     16 H4          2.1510    0.0010    3.2170 h4        1 F07      0.022100
     17 H8         -3.7980   -0.0010    2.4380 h4        1 F07      0.028100
     18 H13        -3.5910    0.0010    5.2480 ha        1 F07      0.162000
     19 H12        -1.6450    0.0020    7.0410 h4        1 F07      0.177000
@<TRIPOS>BOND
     1    1    2 ar  
     2    1    6 ar  
     3    1   14 1   
     4    2    3 ar  
     5    2   15 1   
     6    3    4 ar  
     7    4    5 ar  
     8    4   16 1   
     9    5    6 ar  
    10    5   10 ar  
    11    6    7 ar  
    12    7    8 ar  
    13    8    9 ar  
    14    8   17 1   
    15    9   10 ar  
    16    9   13 1   
    17   10   11 1   
    18   11   12 1   
    19   12   13 2   
    20   12   19 1   
    21   13   18 1   
@<TRIPOS>SUBSTRUCTURE
     1 F07         1 TEMP              0 ****  ****    0 ROOT
