@<TRIPOS>MOLECULE
F08
   33    35     1     0     0
SMALL
bcc


@<TRIPOS>ATOM
      1 CAA         0.0540    0.2380    0.1030 c3        1 F08      0.127700
      2 OAB         1.4830    0.2350    0.1360 os        1 F08     -0.437900
      3 CAC         2.0630   -0.1190    1.3260 c         1 F08      0.641700
      4 OAD         1.3190   -0.4060    2.2680 o         1 F08     -0.537000
      5 CAE         3.5340   -0.1080    1.3090 ca        1 F08     -0.115600
      6 CAJ         4.2180   -0.4570    2.4810 ca        1 F08     -0.078000
      7 CAI         5.6100   -0.4570    2.4990 ca        1 F08     -0.113000
      8 CAF         4.2480    0.2440    0.1590 ca        1 F08     -0.078000
      9 CAG         5.6410    0.2440    0.1770 ca        1 F08     -0.113000
     10 CAH         6.3290   -0.1120    1.3450 ca        1 F08     -0.041800
     11 CAK         7.7950   -0.1290    1.3510 cc        1 F08      0.184900
     12 OAU         8.2970    0.1310    2.6180 os        1 F08     -0.224200
     13 CAT         9.6760    0.1350    2.7590 ca        1 F08      0.142100
     14 CAS        10.1440    0.4030    4.0590 ca        1 F08     -0.158000
     15 CAR        11.5150    0.4260    4.2810 ca        1 F08     -0.077000
     16 CAQ        12.4130    0.1870    3.2330 ca        1 F08     -0.164000
     17 CAP        11.9420   -0.0760    1.9530 ca        1 F08     -0.046000
     18 CAO        10.5620   -0.1050    1.6980 ca        1 F08     -0.214600
     19 CAM        10.0350   -0.3800    0.3530 c         1 F08      0.588900
     20 OAN        10.7580   -0.5970   -0.6300 o         1 F08     -0.540100
     21 CAL         8.5740   -0.3760    0.2740 cd        1 F08     -0.308200
     22 H1         -0.3340   -0.7850    0.3230 h1        1 F08      0.053033
     23 H2         -0.3430    0.9680    0.8490 h1        1 F08      0.053033
     24 H3         -0.1820    0.5510   -0.9440 h1        1 F08      0.053033
     25 H4          3.6450   -0.7300    3.3830 ha        1 F08      0.162500
     26 H5          6.1520   -0.7270    3.4190 ha        1 F08      0.152500
     27 H6          3.7040    0.5220   -0.7590 ha        1 F08      0.162500
     28 H7          6.1990    0.5310   -0.7280 ha        1 F08      0.152500
     29 H8          9.4250    0.5900    4.8690 ha        1 F08      0.155000
     30 H9         11.8980    0.6340    5.2920 ha        1 F08      0.141000
     31 H10        13.4950    0.2080    3.4270 ha        1 F08      0.143000
     32 H11        12.6350   -0.2660    1.1170 ha        1 F08      0.162000
     33 H12         8.1320   -0.5940   -0.7110 ha        1 F08      0.170000
@<TRIPOS>BOND
     1    1    2 1   
     2    1   22 1   
     3    1   23 1   
     4    1   24 1   
     5    2    3 1   
     6    3    4 2   
     7    3    5 1   
     8    5    6 ar  
     9    5    8 ar  
    10    6    7 ar  
    11    6   25 1   
    12    7   10 ar  
    13    7   26 1   
    14    8    9 ar  
    15    8   27 1   
    16    9   10 ar  
    17    9   28 1   
    18   10   11 1   
    19   11   12 1   
    20   11   21 2   
    21   12   13 1   
    22   13   14 ar  
    23   13   18 ar  
    24   14   15 ar  
    25   14   29 1   
    26   15   16 ar  
    27   15   30 1   
    28   16   17 ar  
    29   16   31 1   
    30   17   18 ar  
    31   17   32 1   
    32   18   19 1   
    33   19   20 2   
    34   19   21 1   
    35   21   33 1   
@<TRIPOS>SUBSTRUCTURE
     1 F08         1 TEMP              0 ****  ****    0 ROOT
