@<TRIPOS>MOLECULE
molecule
   33    35     1     0     0
SMALL
bcc


@<TRIPOS>ATOM
      1 CAA          0.0000     0.0000     0.0000 c3         1 F08       0.140700
      2 OAB          1.4510     0.0000     0.0000 os         1 F08      -0.427900
      3 CAC          2.0630     0.0000     1.2000 c          1 F08       0.645700
      4 OAD          1.4010    -0.0000     2.2190 o          1 F08      -0.544000
      5 CAE          3.5390     0.0000     1.2780 ca         1 F08      -0.114600
      6 CAJ          4.1730     0.0000     2.5230 ca         1 F08      -0.077000
      7 CAI          5.5480    -0.0010     2.5950 ca         1 F08      -0.112500
      8 CAF          4.2990    -0.0060     0.1070 ca         1 F08      -0.077000
      9 CAG          5.6740    -0.0060     0.1790 ca         1 F08      -0.112500
     10 CAH          6.3090     0.0000     1.4240 ca         1 F08      -0.039800
     11 CAK          7.7840     0.0000     1.5020 cc         1 F08       0.201900
     12 OAU          8.3660     0.0000     2.7100 os         1 F08      -0.214200
     13 CAT          9.7060     0.0000     2.8660 ca         1 F08       0.156100
     14 CAS         10.2770     0.0000     4.1340 ca         1 F08      -0.155000
     15 CAR         11.6480     0.0020     4.2710 ca         1 F08      -0.075000
     16 CAQ         12.4720     0.0020     3.1540 ca         1 F08      -0.164000
     17 CAP         11.9260     0.0010     1.8890 ca         1 F08      -0.039000
     18 CAO         10.5410     0.0000     1.7370 ca         1 F08      -0.228600
     19 CAM          9.9150    -0.0010     0.4000 c          1 F08       0.584900
     20 OAN         10.5880    -0.0010    -0.6160 o          1 F08      -0.544100
     21 CAL          8.4990    -0.0060     0.3450 cd         1 F08      -0.333200
     22 H1          -0.3610     0.8850     0.5110 h1         1 F08       0.051367
     23 H2          -0.3610     0.0000    -1.0210 h1         1 F08       0.051367
     24 H3          -0.3610    -0.8850     0.5110 h1         1 F08       0.051367
     25 H4           3.5830    -0.0010     3.4320 ha         1 F08       0.159500
     26 H5           6.0400     0.0020     3.5600 ha         1 F08       0.151500
     27 H6           3.8070    -0.0110    -0.8580 ha         1 F08       0.159500
     28 H7           6.2640    -0.0080    -0.7300 ha         1 F08       0.151500
     29 H8           9.6440     0.0000     5.0130 ha         1 F08       0.147000
     30 H9          12.0880     0.0020     5.2610 ha         1 F08       0.140000
     31 H10         13.5480     0.0030     3.2780 ha         1 F08       0.140000
     32 H11         12.5700     0.0010     1.0180 ha         1 F08       0.160000
     33 H12          7.9940    -0.1500    -0.6020 ha         1 F08       0.170000
@<TRIPOS>BOND
     1    16    17 ar
     2    16    15 ar
     3    17    18 ar
     4    15    14 ar
     5    20    19 2
     6    18    19 1
     7    18    13 ar
     8    19    21 1
     9    14    13 ar
    10    13    12 1
    11    21    11 2
    12    12    11 1
    13    11    10 1
    14    10     7 ar
    15    10     9 ar
    16     7     6 ar
    17     9     8 ar
    18     6     5 ar
    19     8     5 ar
    20     5     3 1
    21     3     4 2
    22     3     2 1
    23     2     1 1
    24     1    22 1
    25     1    23 1
    26     1    24 1
    27     6    25 1
    28     7    26 1
    29     8    27 1
    30     9    28 1
    31    14    29 1
    32    15    30 1
    33    16    31 1
    34    17    32 1
    35    21    33 1
@<TRIPOS>SUBSTRUCTURE
     1 F08         1 TEMP              0 ****  ****    0 ROOT
