@<TRIPOS>MOLECULE
F09
   30    29     1     0     0
SMALL
bcc


@<TRIPOS>ATOM
      1 C1          0.0140    0.0000   -0.0110 c3        1 F09     -0.092100
      2 C2          1.5200    0.0000    0.0170 c3        1 F09     -0.080400
      3 C3          2.0500    0.0000    1.4350 c3        1 F09     -0.079400
      4 C4          3.5630    0.0000    1.4580 c3        1 F09     -0.079400
      5 C5          4.0910   -0.0000    2.8770 c3        1 F09     -0.079400
      6 C6          5.6040   -0.0000    2.8990 c3        1 F09     -0.078400
      7 C7          6.1320    0.0000    4.3180 c3        1 F09     -0.078400
      8 C8          7.6440   -0.0000    4.3360 c3        1 F09     -0.084400
      9 C9          8.1620    0.0000    5.7640 c3        1 F09      0.131400
     10 OXT         9.5790   -0.0000    5.6950 oh        1 F09     -0.601800
     11 H11        -0.3550    0.0000   -1.0650 hc        1 F09      0.032700
     12 H12        -0.3910   -0.9050    0.5040 hc        1 F09      0.032700
     13 H13        -0.3910    0.9050    0.5040 hc        1 F09      0.032700
     14 H21         1.9070   -0.9020   -0.5260 hc        1 F09      0.038700
     15 H22         1.9070    0.9020   -0.5260 hc        1 F09      0.038700
     16 H31         1.6650   -0.9020    1.9790 hc        1 F09      0.039700
     17 H32         1.6650    0.9020    1.9790 hc        1 F09      0.039700
     18 H41         3.9470    0.9030    0.9140 hc        1 F09      0.039700
     19 H42         3.9470   -0.9030    0.9140 hc        1 F09      0.039700
     20 H51         3.7070    0.9030    3.4210 hc        1 F09      0.039700
     21 H52         3.7070   -0.9030    3.4210 hc        1 F09      0.039700
     22 H61         5.9890   -0.9030    2.3550 hc        1 F09      0.041700
     23 H62         5.9890    0.9030    2.3550 hc        1 F09      0.041700
     24 H71         5.7480   -0.9030    4.8620 hc        1 F09      0.039700
     25 H72         5.7480    0.9030    4.8620 hc        1 F09      0.039700
     26 H81         8.0400    0.9020    3.8010 hc        1 F09      0.055700
     27 H82         8.0400   -0.9020    3.8010 hc        1 F09      0.055700
     28 H91         7.8060   -0.9130    6.3140 h1        1 F09      0.019700
     29 H92         7.8060    0.9130    6.3140 h1        1 F09      0.019700
     30 HXT         9.8990   -0.0000    6.6040 ho        1 F09      0.398000
@<TRIPOS>BOND
     1    1    2 1   
     2    1   11 1   
     3    1   12 1   
     4    1   13 1   
     5    2    3 1   
     6    2   14 1   
     7    2   15 1   
     8    3    4 1   
     9    3   16 1   
    10    3   17 1   
    11    4    5 1   
    12    4   18 1   
    13    4   19 1   
    14    5    6 1   
    15    5   20 1   
    16    5   21 1   
    17    6    7 1   
    18    6   22 1   
    19    6   23 1   
    20    7    8 1   
    21    7   24 1   
    22    7   25 1   
    23    8    9 1   
    24    8   26 1   
    25    8   27 1   
    26    9   10 1   
    27    9   28 1   
    28    9   29 1   
    29   10   30 1   
@<TRIPOS>SUBSTRUCTURE
     1 F09         1 TEMP              0 ****  ****    0 ROOT
