@<TRIPOS>MOLECULE
molecule
   30    29     1     0     0
SMALL
bcc


@<TRIPOS>ATOM
      1 C1           0.0000     0.0000     0.0000 c3         1 F09      -0.092100
      2 C2           1.5290     0.0000     0.0000 c3         1 F09      -0.084400
      3 C3           2.0410     0.0000     1.4410 c3         1 F09      -0.081400
      4 C4           3.5710    -0.0000     1.4400 c3         1 F09      -0.082400
      5 C5           4.0820     0.0000     2.8820 c3         1 F09      -0.082400
      6 C6           5.6110    -0.0000     2.8810 c3         1 F09      -0.079400
      7 C7           6.1230    -0.0000     4.3230 c3         1 F09      -0.082400
      8 C8           7.6520    -0.0000     4.3220 c3         1 F09      -0.081400
      9 C9           8.1640     0.0000     5.7640 c3         1 F09       0.140400
     10 OXT          9.5930    -0.0000     5.7630 oh         1 F09      -0.612800
     11 H11         -0.3610     0.8850     0.5110 hc         1 F09       0.032700
     12 H12         -0.3610    -0.8840     0.5110 hc         1 F09       0.032700
     13 H13         -0.3610    -0.0000    -1.0210 hc         1 F09       0.032700
     14 H21          1.8900     0.8840    -0.5110 hc         1 F09       0.039700
     15 H22          1.8900    -0.8840    -0.5110 hc         1 F09       0.039700
     16 H31          1.6800    -0.8840     1.9520 hc         1 F09       0.040700
     17 H32          1.6800     0.8840     1.9520 hc         1 F09       0.040700
     18 H41          3.9320    -0.8840     0.9290 hc         1 F09       0.041700
     19 H42          3.9320     0.8840     0.9290 hc         1 F09       0.041700
     20 H51          3.7210    -0.8850     3.3930 hc         1 F09       0.040700
     21 H52          3.7210     0.8850     3.3930 hc         1 F09       0.040700
     22 H61          5.9710     0.8840     2.3700 hc         1 F09       0.043700
     23 H62          5.9710    -0.8840     2.3700 hc         1 F09       0.043700
     24 H71          5.7630    -0.8840     4.8340 hc         1 F09       0.040700
     25 H72          5.7630     0.8840     4.8340 hc         1 F09       0.040700
     26 H81          8.0130    -0.8840     3.8110 hc         1 F09       0.053700
     27 H82          8.0130     0.8840     3.8110 hc         1 F09       0.053700
     28 H91          7.8040    -0.8840     6.2750 h1         1 F09       0.018700
     29 H92          7.8040     0.8840     6.2750 h1         1 F09       0.018700
     30 HXT          9.9070    -0.0000     6.6520 ho         1 F09       0.401000
@<TRIPOS>BOND
     1     1     2 1
     2     1    11 1
     3     1    12 1
     4     1    13 1
     5     2     3 1
     6     2    14 1
     7     2    15 1
     8     3     4 1
     9     3    16 1
    10     3    17 1
    11     4     5 1
    12     4    18 1
    13     4    19 1
    14     5     6 1
    15     5    20 1
    16     5    21 1
    17     6     7 1
    18     6    22 1
    19     6    23 1
    20     7     8 1
    21     7    24 1
    22     7    25 1
    23     8     9 1
    24     8    26 1
    25     8    27 1
    26     9    10 1
    27     9    28 1
    28     9    29 1
    29    10    30 1
@<TRIPOS>SUBSTRUCTURE
     1 F09         1 TEMP              0 ****  ****    0 ROOT
