@<TRIPOS>MOLECULE
molecule
   66    70     1     0     0
SMALL
bcc


@<TRIPOS>ATOM
      1 O29          0.0000     0.0000     0.0000 o          1 F0A      -0.421100
      2 C28          1.2160     0.0000     0.0000 c          1 F0A       0.506700
      3 N30          1.8890     0.0000     1.1670 nz         1 F0A      -0.678400
      4 C24          1.9550    -0.0090    -1.2800 ca         1 F0A      -0.213600
      5 C25          3.3510    -0.0160    -1.2820 ca         1 F0A      -0.124000
      6 C26          4.0350    -0.0230    -2.4810 ca         1 F0A      -0.107000
      7 C27          3.3410    -0.0240    -3.6770 ca         1 F0A      -0.054000
      8 C22          1.9580    -0.0150    -3.6820 ca         1 F0A      -0.065300
      9 C23          1.2610    -0.0150    -2.4900 ca         1 F0A      -0.026000
     10 C21          1.2100    -0.0160    -4.9900 c3         1 F0A      -0.027100
     11 C17          0.9490    -1.4580    -5.4290 c3         1 F0A      -0.083700
     12 C18          0.2930    -1.4760    -6.8320 c3         1 F0A       0.160100
     13 O19          0.1850    -0.1480    -7.3460 oh         1 F0A      -0.602800
     14 C14         -1.0930    -2.0740    -6.6210 c3         1 F0A      -0.080000
     15 C20         -2.0780    -0.9660    -6.2390 c3         1 F0A      -0.084100
     16 C15         -0.8950    -3.0170    -5.4010 c3         1 F0A      -0.066700
     17 C16         -0.0620    -2.1340    -4.4640 c3         1 F0A      -0.075400
     18 C13         -1.6660    -2.8930    -7.7570 c3         1 F0A      -0.065400
     19 C12         -3.0550    -3.3950    -7.3170 c3         1 F0A      -0.075400
     20 C10         -2.9550    -4.1930    -6.0240 c3         1 F0A      -0.017400
     21 C11         -4.3010    -4.6630    -5.5540 ca         1 F0A      -0.043300
     22 C6          -4.6100    -4.7620    -4.2130 ca         1 F0A      -0.103300
     23 C7          -3.6410    -4.3910    -3.1210 c3         1 F0A      -0.026100
     24 C8          -2.2180    -4.2580    -3.6620 c3         1 F0A      -0.075400
     25 C9          -2.2820    -3.3980    -4.9260 c3         1 F0A      -0.058700
     26 C5          -5.8670    -5.2150    -3.8300 ca         1 F0A      -0.130000
     27 C3          -6.8110    -5.5610    -4.7780 ca         1 F0A       0.085100
     28 O4          -8.0380    -6.0010    -4.3920 oh         1 F0A      -0.501100
     29 C2          -6.4990    -5.4570    -6.1310 ca         1 F0A       0.131100
     30 C1          -5.2460    -5.0110    -6.5090 ca         1 F0A      -0.214000
     31 O31         -7.4200    -5.7910    -7.0730 os         1 F0A      -0.308900
     32 C32         -7.0270    -5.6570    -8.4410 c3         1 F0A       0.125700
     33 H1           1.2390     0.0060     1.9280 hn         1 F0A       0.477133
     34 H2           2.4700     0.8140     1.2180 hn         1 F0A       0.477133
     35 H3           3.8960    -0.0160    -0.3460 ha         1 F0A       0.107000
     36 H4           5.1180    -0.0290    -2.4850 ha         1 F0A       0.161000
     37 H5           3.8830    -0.0270    -4.6150 ha         1 F0A       0.164000
     38 H6           0.1780    -0.0090    -2.4940 ha         1 F0A       0.172000
     39 H7           1.8020     0.4900    -5.7440 hc         1 F0A       0.076200
     40 H8           0.2660     0.5010    -4.8660 hc         1 F0A       0.076200
     41 H9           1.8750    -2.0200    -5.4470 hc         1 F0A       0.054700
     42 H10          0.8690    -2.0990    -7.5060 h1         1 F0A       0.045700
     43 H11          0.6620    -0.0850    -8.1570 ho         1 F0A       0.407000
     44 H12         -1.8070    -0.5600    -5.2720 hc         1 F0A       0.045033
     45 H13         -2.0430    -0.1800    -6.9830 hc         1 F0A       0.045033
     46 H14         -3.0800    -1.3750    -6.1910 hc         1 F0A       0.045033
     47 H15         -0.3350    -3.8980    -5.6910 hc         1 F0A       0.060700
     48 H16          0.4580    -2.7400    -3.7310 hc         1 F0A       0.043200
     49 H17         -0.6870    -1.3910    -3.9840 hc         1 F0A       0.043200
     50 H18         -1.7640    -2.2750    -8.6420 hc         1 F0A       0.048200
     51 H19         -1.0200    -3.7380    -7.9620 hc         1 F0A       0.048200
     52 H20         -3.6920    -2.5360    -7.1430 hc         1 F0A       0.055200
     53 H21         -3.4490    -4.0420    -8.0910 hc         1 F0A       0.055200
     54 H22         -2.3470    -5.0690    -6.2210 hc         1 F0A       0.058700
     55 H23         -3.6590    -5.1590    -2.3570 hc         1 F0A       0.048200
     56 H24         -3.9440    -3.4450    -2.6870 hc         1 F0A       0.048200
     57 H25         -1.5880    -3.7780    -2.9230 hc         1 F0A       0.040700
     58 H26         -1.8260    -5.2390    -3.9060 hc         1 F0A       0.040700
     59 H27         -2.8550    -2.5010    -4.7250 hc         1 F0A       0.068700
     60 H28         -6.1090    -5.2960    -2.7780 ha         1 F0A       0.142000
     61 H29         -7.9710    -6.8900    -4.0860 ho         1 F0A       0.418000
     62 H30         -5.0010    -4.9290    -7.5610 ha         1 F0A       0.143000
     63 H31         -6.1650    -6.2860    -8.6320 h1         1 F0A       0.043033
     64 H32         -6.7720    -4.6240    -8.6440 h1         1 F0A       0.043033
     65 H33         -7.8440    -5.9610    -9.0830 h1         1 F0A       0.043033
     66 H303         2.4580    -0.8220     1.2250 hn         1 F0A       0.477133
@<TRIPOS>BOND
     1    28    27 1
     2    26    27 ar
     3    26    22 ar
     4    23    24 1
     5    23    22 1
     6    27    29 ar
     7    24    25 1
     8    22    21 ar
     9    29    31 1
    10    29    30 ar
    11    21    30 ar
    12    21    20 1
    13    31    32 1
    14     6     5 ar
    15     6     7 ar
    16    25    20 1
    17    25    16 1
    18     5     4 ar
    19    20    19 1
    20    17    16 1
    21    17    11 1
    22    16    14 1
    23     7     8 ar
    24     4     2 1
    25     4     9 ar
    26     1     2 2
    27     2     3 1
    28     8     9 ar
    29     8    10 1
    30    11    10 1
    31    11    12 1
    32    19    18 1
    33    14    18 1
    34    14    12 1
    35    14    15 1
    36    12    13 1
    37     3    33 1
    38     3    34 1
    39     5    35 1
    40     6    36 1
    41     7    37 1
    42     9    38 1
    43    10    39 1
    44    10    40 1
    45    11    41 1
    46    12    42 1
    47    13    43 1
    48    15    44 1
    49    15    45 1
    50    15    46 1
    51    16    47 1
    52    17    48 1
    53    17    49 1
    54    18    50 1
    55    18    51 1
    56    19    52 1
    57    19    53 1
    58    20    54 1
    59    23    55 1
    60    23    56 1
    61    24    57 1
    62    24    58 1
    63    25    59 1
    64    26    60 1
    65    28    61 1
    66    30    62 1
    67    32    63 1
    68    32    64 1
    69    32    65 1
    70    66     3 1
@<TRIPOS>SUBSTRUCTURE
     1 F0A         1 TEMP              0 ****  ****    0 ROOT
