@<TRIPOS>MOLECULE
F0A
   66    70     1     0     0
SMALL
bcc


@<TRIPOS>ATOM
      1 O29          0.0000     0.0000     0.0000 o          1 F0A      -0.432100
      2 C28          1.2160     0.0000     0.0000 c          1 F0A       0.357700
      3 N30          1.8890     0.0000     1.1670 nz         1 F0A       0.199600
      4 C24          1.9550    -0.0090    -1.2800 ca         1 F0A      -0.238600
      5 C25          3.3510    -0.0160    -1.2820 ca         1 F0A      -0.096000
      6 C26          4.0350    -0.0230    -2.4810 ca         1 F0A      -0.073000
      7 C27          3.3410    -0.0240    -3.6770 ca         1 F0A      -0.014000
      8 C22          1.9580    -0.0150    -3.6820 ca         1 F0A      -0.070300
      9 C23          1.2610    -0.0150    -2.4900 ca         1 F0A       0.014000
     10 C21          1.2100    -0.0160    -4.9900 c3         1 F0A       0.027900
     11 C17          0.9490    -1.4580    -5.4290 c3         1 F0A      -0.064700
     12 C18          0.2930    -1.4760    -6.8320 c3         1 F0A       0.207100
     13 O19          0.1850    -0.1480    -7.3460 oh         1 F0A      -0.580800
     14 C14         -1.0930    -2.0740    -6.6210 c3         1 F0A      -0.089000
     15 C20         -2.0780    -0.9660    -6.2390 c3         1 F0A      -0.026100
     16 C15         -0.8950    -3.0170    -5.4010 c3         1 F0A      -0.044700
     17 C16         -0.0620    -2.1340    -4.4640 c3         1 F0A      -0.030400
     18 C13         -1.6660    -2.8930    -7.7570 c3         1 F0A      -0.007400
     19 C12         -3.0550    -3.3950    -7.3170 c3         1 F0A      -0.036400
     20 C10         -2.9550    -4.1930    -6.0240 c3         1 F0A       0.015600
     21 C11         -4.3010    -4.6630    -5.5540 ca         1 F0A      -0.048300
     22 C6          -4.6100    -4.7620    -4.2130 ca         1 F0A      -0.106300
     23 C7          -3.6410    -4.3910    -3.1210 c3         1 F0A       0.044900
     24 C8          -2.2180    -4.2580    -3.6620 c3         1 F0A      -0.023400
     25 C9          -2.2820    -3.3980    -4.9260 c3         1 F0A      -0.054700
     26 C5          -5.8670    -5.2150    -3.8300 ca         1 F0A      -0.117000
     27 C3          -6.8110    -5.5610    -4.7780 ca         1 F0A       0.097100
     28 O4          -8.0380    -6.0010    -4.3920 oh         1 F0A      -0.481100
     29 C2          -6.4990    -5.4570    -6.1310 ca         1 F0A       0.132100
     30 C1          -5.2460    -5.0110    -6.5090 ca         1 F0A      -0.207000
     31 O31         -7.4200    -5.7910    -7.0730 os         1 F0A      -0.287900
     32 C32         -7.0270    -5.6570    -8.4410 c3         1 F0A       0.240700
     33 H1           1.2390     0.0060     1.9280 hn         1 F0A       0.246467
     34 H2           2.4700     0.8140     1.2180 hn         1 F0A       0.246467
     35 H3           3.8960    -0.0160    -0.3460 ha         1 F0A       0.081000
     36 H4           5.1180    -0.0290    -2.4850 ha         1 F0A       0.127000
     37 H5           3.8830    -0.0270    -4.6150 ha         1 F0A       0.128000
     38 H6           0.1780    -0.0090    -2.4940 ha         1 F0A       0.141000
     39 H7           1.8020     0.4900    -5.7440 hc         1 F0A       0.045700
     40 H8           0.2660     0.5010    -4.8660 hc         1 F0A       0.045700
     41 H9           1.8750    -2.0200    -5.4470 hc         1 F0A       0.029700
     42 H10          0.8690    -2.0990    -7.5060 h1         1 F0A       0.011700
     43 H11          0.6620    -0.0850    -8.1570 ho         1 F0A       0.394000
     44 H12         -1.8070    -0.5600    -5.2720 hc         1 F0A       0.023700
     45 H13         -2.0430    -0.1800    -6.9830 hc         1 F0A       0.023700
     46 H14         -3.0800    -1.3750    -6.1910 hc         1 F0A       0.023700
     47 H15         -0.3350    -3.8980    -5.6910 hc         1 F0A       0.040700
     48 H16          0.4580    -2.7400    -3.7310 hc         1 F0A       0.019700
     49 H17         -0.6870    -1.3910    -3.9840 hc         1 F0A       0.019700
     50 H18         -1.7640    -2.2750    -8.6420 hc         1 F0A       0.019700
     51 H19         -1.0200    -3.7380    -7.9620 hc         1 F0A       0.019700
     52 H20         -3.6920    -2.5360    -7.1430 hc         1 F0A       0.032700
     53 H21         -3.4490    -4.0420    -8.0910 hc         1 F0A       0.032700
     54 H22         -2.3470    -5.0690    -6.2210 hc         1 F0A       0.034700
     55 H23         -3.6590    -5.1590    -2.3570 hc         1 F0A       0.016200
     56 H24         -3.9440    -3.4450    -2.6870 hc         1 F0A       0.016200
     57 H25         -1.5880    -3.7780    -2.9230 hc         1 F0A       0.013700
     58 H26         -1.8260    -5.2390    -3.9060 hc         1 F0A       0.013700
     59 H27         -2.8550    -2.5010    -4.7250 hc         1 F0A       0.054700
     60 H28         -6.1090    -5.2960    -2.7780 ha         1 F0A       0.115000
     61 H29         -7.9710    -6.8900    -4.0860 ho         1 F0A       0.401000
     62 H30         -5.0010    -4.9290    -7.5610 ha         1 F0A       0.133000
     63 H31         -6.1650    -6.2860    -8.6320 h1         1 F0A      -0.001633
     64 H32         -6.7720    -4.6240    -8.6440 h1         1 F0A      -0.001633
     65 H33         -7.8440    -5.9610    -9.0830 h1         1 F0A      -0.001633
     66 H303         2.4580    -0.8220     1.2250 hn         1 F0A       0.246467
@<TRIPOS>BOND
     1     1     2 2   
     2     2     3 1   
     3     2     4 1   
     4     3    33 1   
     5     3    34 1   
     6     3    66 1   
     7     4     5 ar  
     8     4     9 ar  
     9     5     6 ar  
    10     5    35 1   
    11     6     7 ar  
    12     6    36 1   
    13     7     8 ar  
    14     7    37 1   
    15     8     9 ar  
    16     8    10 1   
    17     9    38 1   
    18    10    11 1   
    19    10    39 1   
    20    10    40 1   
    21    11    12 1   
    22    11    17 1   
    23    11    41 1   
    24    12    13 1   
    25    12    14 1   
    26    12    42 1   
    27    13    43 1   
    28    14    15 1   
    29    14    16 1   
    30    14    18 1   
    31    15    44 1   
    32    15    45 1   
    33    15    46 1   
    34    16    17 1   
    35    16    25 1   
    36    16    47 1   
    37    17    48 1   
    38    17    49 1   
    39    18    19 1   
    40    18    50 1   
    41    18    51 1   
    42    19    20 1   
    43    19    52 1   
    44    19    53 1   
    45    20    21 1   
    46    20    25 1   
    47    20    54 1   
    48    21    22 ar  
    49    21    30 ar  
    50    22    23 1   
    51    22    26 ar  
    52    23    24 1   
    53    23    55 1   
    54    23    56 1   
    55    24    25 1   
    56    24    57 1   
    57    24    58 1   
    58    25    59 1   
    59    26    27 ar  
    60    26    60 1   
    61    27    28 1   
    62    27    29 ar  
    63    28    61 1   
    64    29    30 ar  
    65    29    31 1   
    66    30    62 1   
    67    31    32 1   
    68    32    63 1   
    69    32    64 1   
    70    32    65 1   
@<TRIPOS>SUBSTRUCTURE
     1 F0A         1 TEMP              0 ****  ****    0 ROOT
