@<TRIPOS>MOLECULE
molecule
   67    71     1     0     0
SMALL
bcc


@<TRIPOS>ATOM
      1 C1           0.0000     0.0000     0.0000 ca         1 F0D      -0.125000
      2 C2           1.3800     0.0000     0.0000 ca         1 F0D      -0.122000
      3 C31          4.0750     1.4520     1.2180 c3         1 F0D       0.004000
      4 C30          3.5710     0.0070     1.2110 c3         1 F0D      -0.037100
      5 C3           2.0640     0.0000     1.2010 ca         1 F0D      -0.090300
      6 C5           1.3640    -0.0050     2.3890 ca         1 F0D      -0.126000
      7 C6          -0.0240    -0.0090     2.3930 ca         1 F0D      -0.075300
      8 C7          -0.7200    -0.0390     3.7290 c3         1 F0D      -0.030100
      9 C8          -2.1960     0.3360     3.5930 c3         1 F0D      -0.078400
     10 C9          -2.7960    -0.4890     2.4540 c3         1 F0D      -0.080700
     11 C11         -0.7060     0.0060     1.1940 ca         1 F0D      -0.072300
     12 C10         -2.2060     0.0280     1.1360 c3         1 F0D      -0.032400
     13 C12         -2.7380    -0.7430    -0.0630 c3         1 F0D      -0.072400
     14 C13         -4.2790    -0.7040    -0.0930 c3         1 F0D      -0.059400
     15 C14         -4.7780    -1.2700     1.2200 c3         1 F0D      -0.085000
     16 C20         -4.1850    -2.6640     1.4370 c3         1 F0D      -0.085100
     17 C15         -4.2990    -0.3140     2.3640 c3         1 F0D      -0.063700
     18 C16         -5.1080    -0.8310     3.5590 c3         1 F0D      -0.128400
     19 C18         -6.2880    -1.3190     1.4180 c3         1 F0D       0.126100
     20 O19         -6.8000    -2.5900     1.0130 oh         1 F0D      -0.558800
     21 C17         -6.5120    -1.0800     2.9460 c3         1 F0D      -0.016700
     22 C21         -7.1440    -2.3260     3.5720 c3         1 F0D      -0.156100
     23 C22         -7.4280    -2.0680     5.0290 ca         1 F0D      -0.040300
     24 C23         -8.6440    -1.5410     5.4110 ca         1 F0D      -0.051000
     25 C27         -6.4690    -2.3650     5.9810 ca         1 F0D      -0.034000
     26 C26         -6.7230    -2.1370     7.3220 ca         1 F0D      -0.114000
     27 C25         -7.9350    -1.6110     7.7170 ca         1 F0D      -0.120000
     28 C24         -8.9050    -1.3040     6.7600 ca         1 F0D      -0.213600
     29 C28        -10.2070    -0.7390     7.1770 c          1 F0D       0.508700
     30 O29        -11.0490    -0.4740     6.3430 o          1 F0D      -0.424100
     31 N30        -10.4590    -0.5210     8.4820 nz         1 F0D      -0.678400
     32 H1          -0.4150     0.6840    -0.7310 ha         1 F0D       0.139000
     33 H2           1.9220    -0.1020    -0.9320 ha         1 F0D       0.141000
     34 H3           3.7060     1.9590     2.1010 h1         1 F0D       0.071700
     35 H4           3.7180     1.9630     0.3320 h1         1 F0D       0.071700
     36 H6           3.9400    -0.5000     0.3280 hc         1 F0D       0.067700
     37 H7           3.9290    -0.5040     2.0970 hc         1 F0D       0.067700
     38 H8           1.7790     0.6820     3.1170 ha         1 F0D       0.135000
     39 H9          -0.6450    -1.0370     4.1440 hc         1 F0D       0.053700
     40 H10         -0.2360     0.6660     4.3950 hc         1 F0D       0.053700
     41 H11         -2.7140     0.1120     4.5180 hc         1 F0D       0.041200
     42 H12         -2.2840     1.3910     3.3650 hc         1 F0D       0.041200
     43 H13         -2.5520    -1.5360     2.5870 hc         1 F0D       0.077700
     44 H14         -2.6190     1.0220     1.2560 hc         1 F0D       0.049700
     45 H15         -2.3350    -1.6780     0.3050 hc         1 F0D       0.066200
     46 H16         -2.2840    -0.4240    -0.9930 hc         1 F0D       0.066200
     47 H17         -4.6170     0.3190    -0.2040 hc         1 F0D       0.047200
     48 H18         -4.6440    -1.3090    -0.9150 hc         1 F0D       0.047200
     49 H19         -3.8750    -3.0770     0.4840 hc         1 F0D       0.050367
     50 H20         -3.3290    -2.5940     2.0960 hc         1 F0D       0.050367
     51 H21         -4.9330    -3.3080     1.8830 hc         1 F0D       0.050367
     52 H22         -4.5560     0.7130     2.1380 hc         1 F0D       0.053700
     53 H23         -5.1930     0.2490     3.5950 hc         1 F0D       0.072200
     54 H24         -4.6670    -1.3560     4.3980 hc         1 F0D       0.072200
     55 H25         -6.7600    -0.5260     0.8500 h1         1 F0D       0.037700
     56 H26         -7.2220    -1.9130     0.5120 ho         1 F0D       0.407000
     57 H27         -7.1450    -0.2150     3.1000 hc         1 F0D       0.023700
     58 H28         -7.7050    -1.4030     3.4870 hc         1 F0D       0.104200
     59 H29         -7.7500    -3.0200     3.0010 hc         1 F0D       0.104200
     60 H30         -9.3920    -1.3050     4.6640 ha         1 F0D       0.165000
     61 H31         -5.5160    -2.7790     5.6760 ha         1 F0D       0.175000
     62 H32         -5.9690    -2.3740     8.0630 ha         1 F0D       0.161000
     63 H33         -8.1330    -1.4310     8.7670 ha         1 F0D       0.107000
     64 H34         -9.7890     0.1260     8.8480 hn         1 F0D       0.477800
     65 H35        -11.3800    -0.1410     8.5850 hn         1 F0D       0.477800
     66 Br1          6.0410     1.4600     1.2320 br         1 F0D      -0.174400
     67 H303       -10.3980    -1.3850     8.9840 hn         1 F0D       0.477800
@<TRIPOS>BOND
     1     3     4 1
     2     4     5 1
     3     6     5 ar
     4     6     7 ar
     5     5     2 ar
     6     8     7 1
     7     8     9 1
     8     7    11 ar
     9     2     1 ar
    10     9    10 1
    11    11     1 ar
    12    11    12 1
    13    12    10 1
    14    12    13 1
    15    10    17 1
    16    17    18 1
    17    17    15 1
    18    18    21 1
    19    13    14 1
    20    26    27 ar
    21    26    25 ar
    22    27    28 ar
    23    14    15 1
    24    21    19 1
    25    21    22 1
    26    15    19 1
    27    15    16 1
    28    25    23 ar
    29    30    29 2
    30    28    29 1
    31    28    24 ar
    32    29    31 1
    33    19    20 1
    34    23    24 ar
    35    23    22 1
    36     1    32 1
    37     2    33 1
    38     3    34 1
    39     3    35 1
    40     4    36 1
    41     4    37 1
    42     6    38 1
    43     8    39 1
    44     8    40 1
    45     9    41 1
    46     9    42 1
    47    10    43 1
    48    12    44 1
    49    13    45 1
    50    13    46 1
    51    14    47 1
    52    14    48 1
    53    16    49 1
    54    16    50 1
    55    16    51 1
    56    17    52 1
    57    18    53 1
    58    18    54 1
    59    19    55 1
    60    20    56 1
    61    21    57 1
    62    22    58 1
    63    22    59 1
    64    24    60 1
    65    25    61 1
    66    26    62 1
    67    27    63 1
    68    31    64 1
    69    31    65 1
    70     3    66 1
    71    67    31 1
@<TRIPOS>SUBSTRUCTURE
     1 F0D         1 TEMP              0 ****  ****    0 ROOT
