@<TRIPOS>MOLECULE
molecule
   81    85     1     0     0
SMALL
bcc


@<TRIPOS>ATOM
      1 C2           0.0000     0.0000     0.0000 c3         1 F0H      -0.498600
      2 C3           1.5300     0.0000     0.0000 c3         1 F0H       0.235000
      3 C5           2.0530     1.1760     2.1460 ca         1 F0H      -0.124000
      4 C6           2.5140     1.1780     3.4490 ca         1 F0H      -0.098000
      5 C7           2.9610     0.0040     4.0260 ca         1 F0H      -0.013600
      6 C11          2.4730    -1.1760     1.9970 ca         1 F0H      -0.140000
      7 C13          1.1280     2.1190    -1.1360 cc         1 F0H       0.026600
      8 C14          1.5440     3.2370    -1.7720 cd         1 F0H      -0.235000
      9 C15          2.9240     3.4530    -1.9810 cd         1 F0H      -0.063800
     10 C16          3.8270     2.5070    -1.5240 cc         1 F0H      -0.253200
     11 C19          3.3990     4.6740    -2.6780 ca         1 F0H       0.534100
     12 C21          5.1600     6.0420    -3.5390 ca         1 F0H       0.484200
     13 C23          2.9530     6.6690    -3.7430 ca         1 F0H       0.863900
     14 C25          2.4340     8.6840    -4.9540 ca         1 F0H       0.110600
     15 C26          1.7920     9.9180    -4.8410 ca         1 F0H      -0.252300
     16 C27          2.2260    10.9780    -5.6100 ca         1 F0H       0.437200
     17 C31          5.8710     9.4930    -8.2540 c1         1 F0H      -0.016100
     18 C35          7.6000     7.6890   -12.2630 c          1 F0H       0.714100
     19 C38          9.2710     6.6450   -13.4970 c3         1 F0H       0.145100
     20 C39         10.5230     6.6000   -13.2740 c3         1 F0H      -0.113400
     21 C40         11.2630     8.0700   -13.6480 c3         1 F0H      -0.078400
     22 C42         11.8790     7.8230   -15.8430 c2         1 F0H      -0.143200
     23 C43         11.1960     6.9470   -16.3300 c2         1 F0H      -0.262200
     24 O1          -0.4760     1.0920     0.7900 oh         1 F0H      -0.426800
     25 C4           2.0330     0.0000     1.4200 ca         1 F0H      -0.075300
     26 Cl8          3.5400     0.0060     5.6630 cl         1 F0H      -0.089400
     27 C9           2.9460    -1.1750     3.2980 ca         1 F0H       0.142900
     28 F10          3.3770    -2.3240     3.8630 f          1 F0H      -0.127900
     29 N12          2.0180     1.1960    -0.6910 n          1 F0H      -0.309000
     30 C17          3.3420     1.3630    -0.8690 c          1 F0H       0.678700
     31 O18          4.1230     0.5180    -0.4610 o          1 F0H      -0.660500
     32 C20          4.7640     4.8870    -2.8830 ca         1 F0H      -0.399600
     33 N22          4.2410     6.9010    -3.9480 nb         1 F0H      -0.805000
     34 N24          2.0210     7.5920    -4.1920 nu         1 F0H      -0.760300
     35 N28          3.2350    10.8420    -6.4470 nb         1 F0H      -0.678000
     36 C29          3.8760     9.6860    -6.5880 ca         1 F0H       0.591300
     37 C30          4.9670     9.5870    -7.5110 cg         1 F0H      -0.282000
     38 C32          6.6810     9.4890    -9.1920 c3         1 F0H      -0.101300
     39 C33          6.1280     8.9970   -10.7460 c3         1 F0H       0.125000
     40 N34          6.7810     9.2580   -11.8190 ns         1 F0H      -0.628900
     41 O36          6.8300     6.9410   -12.0600 o          1 F0H      -0.368000
     42 O37          8.6810     7.8880   -13.1940 os         1 F0H      -0.345900
     43 C41         12.4880     8.0020   -14.1360 c3         1 F0H      -0.020200
     44 C44          9.6050     7.4930   -15.8810 c3         1 F0H      -0.012200
     45 C45          8.8450     6.1860   -14.9340 c3         1 F0H      -0.108400
     46 C46          3.4920     8.5690    -5.8510 ca         1 F0H      -0.299300
     47 N47          2.5310     5.5800    -3.1210 nb         1 F0H      -0.714000
     48 H49         -0.3610     0.1060     1.0160 h1         1 F0H       0.246700
     49 H50         -0.3610    -0.9330    -0.4160 h1         1 F0H       0.246700
     50 H51          1.8910    -0.8850    -0.5110 h1         1 F0H       0.092700
     51 H52          1.7040     2.0970     1.6940 ha         1 F0H       0.148000
     52 H53          2.5300     2.1010     4.0160 ha         1 F0H       0.150000
     53 H54          2.5400    -2.0790     1.4020 ha         1 F0H       0.154000
     54 H55          0.0700     1.9530    -0.9750 h4         1 F0H       0.170000
     55 H56          0.8300     3.9990    -2.0590 ha         1 F0H       0.171000
     56 H57          4.8850     2.6250    -1.7250 ha         1 F0H       0.163000
     57 H59          6.2120     6.2330    -3.7120 h4         1 F0H       0.031100
     58 H61          1.0330    10.0670    -4.0830 ha         1 F0H       0.166000
     59 H62          1.7360    11.9410    -5.5310 h4         1 F0H       0.034100
     60 H68          8.8280     5.9280   -12.8160 h1         1 F0H       0.026700
     61 H69         10.9630     5.8180   -13.8810 hc         1 F0H       0.063200
     62 H70         10.6880     6.3780   -12.2260 hc         1 F0H       0.063200
     63 H72         11.2970     8.6670   -12.7440 hc         1 F0H       0.048700
     64 H71         10.6430     8.5820   -14.3730 hc         1 F0H       0.048700
     65 H75         12.1700     8.6150   -16.5240 ha         1 F0H       0.094000
     66 H76         11.3870     6.6100   -17.3410 ha         1 F0H       0.126000
     67 H48         -1.4180     1.0720     0.8180 ho         1 F0H       0.426000
     68 H58          5.4890     4.2020    -2.4620 ha         1 F0H       0.155000
     69 H60          2.1930     8.1090    -5.0320 hn         1 F0H       0.521800
     70 H64          7.5000     8.8360    -8.9150 hc         1 F0H       0.068700
     71 H63          7.0760    10.4930    -9.2890 hc         1 F0H       0.068700
     72 H65          5.1390     9.4210   -10.8730 h1         1 F0H       0.030200
     73 H66          6.0110     7.9200   -10.7080 h1         1 F0H       0.030200
     74 H67          6.3660     9.8250   -12.5320 hn         1 F0H       0.304500
     75 H74         13.0410     8.9220   -13.9900 hc         1 F0H       0.062700
     76 H73         13.0180     7.1210   -13.7940 hc         1 F0H       0.062700
     77 H77          9.6800     8.3890   -15.2770 hc         1 F0H       0.066700
     78 H78          9.0190     7.6900   -16.7710 hc         1 F0H       0.066700
     79 H79          9.2720     5.2220   -15.1810 hc         1 F0H       0.063700
     80 H80          7.7680     6.1940   -15.0460 hc         1 F0H       0.063700
     81 H81          4.0100     7.6230    -5.9600 ha         1 F0H       0.182000
@<TRIPOS>BOND
     1    23    44 1
     2    23    22 2
     3    44    45 1
     4    45    19 1
     5    39    38 1
     6    39    40 1
     7    41    18 2
     8    35    16 ar
     9    35    36 ar
    10    16    15 ar
    11    22    43 1
    12    38    17 1
    13    18    40 1
    14    18    42 1
    15    17    37 3
    16    37    36 1
    17    36    46 ar
    18    15    14 ar
    19    42    19 1
    20    19    20 1
    21    46    14 ar
    22    24     1 1
    23    14    34 1
    24    43    21 1
    25    21    20 1
    26    34    13 1
    27     1     2 1
    28    13    47 ar
    29    13    33 ar
    30    47    11 ar
    31     8     7 2
    32     8     9 1
    33     7    29 1
    34    33    12 ar
    35    11     9 1
    36    11    32 ar
    37     9    10 2
    38    29     2 1
    39    29    30 1
    40     2    25 1
    41    12    32 ar
    42    10    30 1
    43    30    31 2
    44    25     6 ar
    45    25     3 ar
    46     6    27 ar
    47     3     4 ar
    48    27    28 1
    49    27     5 ar
    50     4     5 ar
    51     5    26 1
    52     1    48 1
    53     1    49 1
    54     2    50 1
    55     3    51 1
    56     4    52 1
    57     6    53 1
    58     7    54 1
    59     8    55 1
    60    10    56 1
    61    12    57 1
    62    15    58 1
    63    16    59 1
    64    19    60 1
    65    20    61 1
    66    20    62 1
    67    21    63 1
    68    21    64 1
    69    22    65 1
    70    23    66 1
    71    24    67 1
    72    32    68 1
    73    34    69 1
    74    38    70 1
    75    38    71 1
    76    39    72 1
    77    39    73 1
    78    40    74 1
    79    43    75 1
    80    43    76 1
    81    44    77 1
    82    44    78 1
    83    45    79 1
    84    45    80 1
    85    46    81 1
@<TRIPOS>SUBSTRUCTURE
     1 F0H         1 TEMP              0 ****  ****    0 ROOT
