@<TRIPOS>MOLECULE
molecule
   21    21     1     0     0
SMALL
bcc


@<TRIPOS>ATOM
      1 C1           0.0000     0.0000     0.0000 c3         1 F0J       0.129700
      2 C3           1.2920    -0.0000     2.3740 ca         1 F0J      -0.245000
      3 C4           1.9170     0.0000     3.6070 ca         1 F0J      -0.094000
      4 C5           3.3000     0.0000     3.6830 ca         1 F0J       0.040100
      5 C6           4.0600    -0.0010     2.5180 ca         1 F0J       0.159100
      6 O1           1.4300     0.0000     0.0000 os         1 F0J      -0.328900
      7 C2           2.0470    -0.0010     1.2110 ca         1 F0J       0.169100
      8 C7           3.4320    -0.0010     1.2830 ca         1 F0J      -0.244000
      9 C8           6.1350    -0.0030     1.3540 c3         1 F0J       0.123700
     10 O3           3.9150     0.0010     4.8970 oh         1 F0J      -0.502100
     11 H1          -0.3610     0.0000    -1.0210 h1         1 F0J       0.042700
     12 H2          -0.3610    -0.8850     0.5100 h1         1 F0J       0.042700
     13 H3          -0.3610     0.8840     0.5110 h1         1 F0J       0.042700
     14 H4           0.2100    -0.0000     2.3160 ha         1 F0J       0.138000
     15 H5           1.3250     0.0010     4.5150 ha         1 F0J       0.142000
     16 H6           4.0220    -0.0020     0.3750 ha         1 F0J       0.152000
     17 H7           5.8730     0.8810     0.7840 h1         1 F0J       0.043367
     18 H8           5.9340    -0.8870     0.7610 h1         1 F0J       0.043367
     19 H9           7.1870     0.0300     1.6080 h1         1 F0J       0.043367
     20 H10          3.8010     0.8420     5.3070 ho         1 F0J       0.411000
     21 O2           5.4180    -0.0020     2.5900 os         1 F0J      -0.307900
@<TRIPOS>BOND
     1     1     6 1
     2     6     7 1
     3     2     7 ar
     4     2     3 ar
     5     7     8 ar
     6     3     4 ar
     7     8     5 ar
     8     4     5 ar
     9     4    10 1
    10     5    21 1
    11     9    21 1
    12     1    11 1
    13     1    12 1
    14     1    13 1
    15     2    14 1
    16     3    15 1
    17     8    16 1
    18     9    17 1
    19     9    18 1
    20     9    19 1
    21    10    20 1
@<TRIPOS>SUBSTRUCTURE
     1 F0J         1 TEMP              0 ****  ****    0 ROOT
