@<TRIPOS>MOLECULE
F0P
   71    76     1     0     0
SMALL
bcc


@<TRIPOS>ATOM
      1 C4           0.0000     0.0000     0.0000 c2         1 F0P      -0.106000
      2 C14         -6.9680    -3.3000   -11.1310 c2         1 F0P       0.097000
      3 C5           1.4060     0.0000     0.0000 c2         1 F0P      -0.259000
      4 C6           2.0690     0.0000     1.2390 c2         1 F0P       0.077000
      5 C11         -4.5510    -3.7590   -11.5180 ca         1 F0P      -0.088000
      6 C7          -4.0170    -3.4530    -8.8130 ca         1 F0P      -0.067000
      7 C8           0.7600     0.0000    -2.0700 c2         1 F0P      -0.233000
      8 C9          -2.9970    -3.7560    -9.6960 ca         1 F0P      -0.017000
      9 C10         -3.2630    -3.9040   -11.0460 ca         1 F0P      -0.074000
     10 C12         -5.5860    -3.4570   -10.6320 ca         1 F0P      -0.215000
     11 C13         -5.3100    -3.3050    -9.2720 ca         1 F0P       0.020000
     12 N1           1.3380    -0.0000     2.3490 n2         1 F0P      -0.204000
     13 C3          -3.7180    -3.2940    -7.3440 c3         1 F0P      -0.076000
     14 N3          -0.6450     0.0010     1.1620 n2         1 F0P      -0.186000
     15 N            1.7770    -1.9410    -7.6110 nz         1 F0P       0.816000
     16 CA           1.8320    -1.8140    -6.1490 c3         1 F0P      -0.263000
     17 C            3.0960    -2.4560    -5.6350 c2         1 F0P       0.364000
     18 OXT          3.5690    -2.1300    -4.4230 o          1 F0P      -0.536500
     19 CB           0.6190    -2.5120    -5.5300 c3         1 F0P      -0.284000
     20 CG          -1.8610    -2.4090    -5.2460 c3         1 F0P      -0.113000
     21 ND          -3.0800    -1.6800    -5.6170 n3         1 F0P       0.017000
     22 CE          -3.3720    -1.8330    -7.0490 c3         1 F0P      -0.089000
     23 C1          -0.6600    -1.7930    -5.9670 c3         1 F0P      -0.104000
     24 C1'         -1.7520     0.0070    -1.8260 c3         1 F0P       0.041000
     25 C2           0.0190     0.0010     2.2990 c2         1 F0P       0.044000
     26 C2'         -2.2440     1.4550    -2.0460 c3         1 F0P      -0.002000
     27 C3'         -3.1050     1.3680    -3.3270 DU         1 F0P       0.006000
     28 C4'         -3.0300    -0.1210    -3.7290 DU         1 F0P      -0.105000
     29 C5'         -2.9760    -0.2600    -5.2510 c3         1 F0P      -0.570000
     30 N16         -7.2320    -3.4480   -12.4440 nz         1 F0P       0.815000
     31 N6           3.4520    -0.0010     1.3010 nv         1 F0P       0.138000
     32 N7           1.8050    -0.0010    -1.2940 n2         1 F0P      -0.011000
     33 N9          -0.3780     0.0050    -1.3190 na         1 F0P       0.266000
     34 O15         -7.8670    -3.0370   -10.3560 o          1 F0P      -0.186000
     35 O2'         -3.0370     1.8880    -0.9390 oh         1 F0P      -0.267000
     36 O3'         -4.4550     1.7460    -3.0490 oh         1 F0P      -0.231000
     37 O4'         -1.8060    -0.6030    -3.1330 os         1 F0P      -0.257000
     38 H2           0.7890    -0.0010    -3.1530 h5         1 F0P       0.153000
     39 H3          -1.9830    -3.8710    -9.3300 ha         1 F0P       0.121000
     40 H4          -2.4590    -4.1400   -11.7330 ha         1 F0P       0.127000
     41 H5          -6.1080    -3.0670    -8.5790 ha         1 F0P       0.140000
     42 H6          -2.8800    -3.9260    -7.0760 hc         1 F0P       0.086000
     43 H7          -4.5880    -3.5830    -6.7660 hc         1 F0P       0.086000
     44 H9           2.6930    -1.8070    -7.9920 hn         1 F0P       0.008333
     45 H11          1.8230    -0.7660    -5.8770 hx         1 F0P       0.104000
     46 H13          0.8690    -1.4990    -5.2380 hc         1 F0P       0.144000
     47 H14          0.6690    -3.0460    -4.5890 hc         1 F0P       0.144000
     48 H15         -1.7120    -2.3440    -4.1750 h1         1 F0P       0.094500
     49 H16         -1.9600    -3.4490    -5.5350 h1         1 F0P       0.094500
     50 H18         -2.5030    -1.5440    -7.6280 h1         1 F0P       0.048000
     51 H19         -4.2110    -1.2020    -7.3160 h1         1 F0P       0.048000
     52 H20         -0.5870    -0.7420    -5.7150 hc         1 F0P       0.038500
     53 H21         -0.7860    -1.9000    -7.0370 hc         1 F0P       0.038500
     54 H22         -2.4130    -0.5120    -1.1420 h2         1 F0P       0.115000
     55 H23         -0.6470    -0.1650     3.1370 h5         1 F0P       0.136000
     56 H24         -1.4030     2.1200    -2.2010 h1         1 F0P       0.103000
     57 H25         -2.3230     2.0800    -3.5620 ha         1 F0P       0.099000
     58 H26         -2.6570     0.7720    -4.2150 DU         1 F0P       0.222000
     59 H27         -3.8330    -0.5780    -4.6690 DU         1 F0P       0.289000
     60 H28         -3.4060     0.4930    -5.9000 h1         1 F0P       0.151000
     61 H29         -8.2100    -3.3100   -12.6050 hn         1 F0P       0.043000
     62 H30         -6.9720    -4.3690   -12.7350 hn         1 F0P       0.043000
     63 H31          3.9130     0.0010     2.1890 hn         1 F0P       0.076000
     64 H32          3.9910    -0.0040     0.4580 hn         1 F0P       0.076000
     65 H33         -3.7020     1.2450    -0.7580 ho         1 F0P       0.216000
     66 H34         -4.6970     2.4730    -3.5990 ho         1 F0P       0.193000
     67 O            3.6840    -3.2630    -6.3160 o          1 F0P      -0.536500
     68 H1          -4.7580    -3.8750   -12.5750 ha         1 F0P       0.083000
     69 H2A          1.1570    -1.2500    -7.9830 hn         1 F0P       0.008333
     70 H163        -6.7170    -2.7660   -12.9660 hn         1 F0P       0.043000
     71 H8           1.4450    -2.8540    -7.8540 hn         1 F0P       0.008333
@<TRIPOS>BOND
     1     1     3 1   
     2     1    14 1   
     3     1    33 1   
     4     2    10 1   
     5     2    30 1   
     6     2    34 1   
     7     3     4 1   
     8     3    32 1   
     9     4    12 1   
    10     4    31 1   
    11     5     9 1   
    12     5    10 1   
    13     5    68 1   
    14     6     8 1   
    15     6    11 1   
    16     6    13 1   
    17     7    32 1   
    18     7    33 1   
    19     7    38 1   
    20     8     9 1   
    21     8    39 1   
    22     9    40 1   
    23    10    11 1   
    24    11    41 1   
    25    12    25 1   
    26    13    22 1   
    27    13    42 1   
    28    13    43 1   
    29    14    25 1   
    30    15    16 1   
    31    15    44 1   
    32    15    69 1   
    33    15    71 1   
    34    16    17 1   
    35    16    19 1   
    36    16    45 1   
    37    17    18 1   
    38    17    67 1   
    39    19    23 1   
    40    19    46 1   
    41    19    47 1   
    42    20    21 1   
    43    20    23 1   
    44    20    48 1   
    45    20    49 1   
    46    21    22 1   
    47    21    29 1   
    48    22    50 1   
    49    22    51 1   
    50    23    52 1   
    51    23    53 1   
    52    24    26 1   
    53    24    33 1   
    54    24    37 1   
    55    24    54 1   
    56    25    55 1   
    57    26    27 1   
    58    26    35 1   
    59    26    56 1   
    60    27    28 1   
    61    27    36 1   
    62    27    57 1   
    63    27    58 1   
    64    28    29 1   
    65    28    37 1   
    66    28    58 1   
    67    28    59 1   
    68    29    59 1   
    69    29    60 1   
    70    30    61 1   
    71    30    62 1   
    72    30    70 1   
    73    31    63 1   
    74    31    64 1   
    75    35    65 1   
    76    36    66 1   
@<TRIPOS>SUBSTRUCTURE
     1 F0P         1 TEMP              0 ****  ****    0 ROOT
