@<TRIPOS>MOLECULE
molecule
   71    74     1     0     0
SMALL
bcc


@<TRIPOS>ATOM
      1 C4           0.0000     0.0000     0.0000 ca         1 F0P       0.479800
      2 C14         -6.9680    -3.3000   -11.1310 c          1 F0P       0.506700
      3 C5           1.4060     0.0000     0.0000 ca         1 F0P      -0.212200
      4 C6           2.0690     0.0000     1.2390 ca         1 F0P       0.800200
      5 C11         -4.5510    -3.7590   -11.5180 ca         1 F0P      -0.118000
      6 C7          -4.0170    -3.4530    -8.8130 ca         1 F0P      -0.069300
      7 C8           0.7600     0.0000    -2.0700 cc         1 F0P       0.406700
      8 C9          -2.9970    -3.7560    -9.6960 ca         1 F0P      -0.056000
      9 C10         -3.2630    -3.9040   -11.0460 ca         1 F0P      -0.109000
     10 C12         -5.5860    -3.4570   -10.6320 ca         1 F0P      -0.211600
     11 C13         -5.3100    -3.3050    -9.2720 ca         1 F0P      -0.024000
     12 N1           1.3380    -0.0000     2.3490 nb         1 F0P      -0.826000
     13 C3          -3.7180    -3.2940    -7.3440 c3         1 F0P      -0.047100
     14 N3          -0.6450     0.0010     1.1620 nb         1 F0P      -0.812000
     15 N            1.7770    -1.9410    -7.6110 nz         1 F0P      -0.799600
     16 CA           1.8320    -1.8140    -6.1490 c3         1 F0P       0.037500
     17 C            3.0960    -2.4560    -5.6350 c          1 F0P       0.862600
     18 OXT          3.5690    -2.1300    -4.4230 o          1 F0P      -0.759800
     19 CB           0.6190    -2.5120    -5.5300 c3         1 F0P      -0.231400
     20 CG          -1.8610    -2.4090    -5.2460 c3         1 F0P       0.142800
     21 ND          -3.0800    -1.6800    -5.6170 n3         1 F0P      -0.645600
     22 CE          -3.3720    -1.8330    -7.0490 c3         1 F0P       0.154800
     23 C1          -0.6600    -1.7930    -5.9670 c3         1 F0P      -0.093400
     24 C1'         -1.7520     0.0070    -1.8260 c3         1 F0P       0.230800
     25 C2           0.0190     0.0010     2.2990 ca         1 F0P       0.752900
     26 C2'         -2.2440     1.4550    -2.0460 c3         1 F0P       0.093100
     27 C3'         -3.1050     1.3680    -3.3270 c3         1 F0P       0.054100
     28 C4'         -3.0300    -0.1210    -3.7290 c3         1 F0P      -0.009900
     29 C5'         -2.9760    -0.2600    -5.2510 c3         1 F0P      -0.269200
     30 N16         -7.2320    -3.4480   -12.4440 nz         1 F0P      -0.678400
     31 N6           3.4520    -0.0010     1.3010 nv         1 F0P      -0.973500
     32 N7           1.8050    -0.0010    -1.2940 nd         1 F0P      -0.541100
     33 N9          -0.3780     0.0050    -1.3190 na         1 F0P      -0.267000
     34 O15         -7.8670    -3.0370   -10.3560 o          1 F0P      -0.415100
     35 O2'         -3.0370     1.8880    -0.9390 oh         1 F0P      -0.550800
     36 O3'         -4.4550     1.7460    -3.0490 oh         1 F0P      -0.519800
     37 O4'         -1.8060    -0.6030    -3.1330 os         1 F0P      -0.420600
     38 H2           0.7890    -0.0010    -3.1530 h5         1 F0P       0.070800
     39 H3          -1.9830    -3.8710    -9.3300 ha         1 F0P       0.157000
     40 H4          -2.4590    -4.1400   -11.7330 ha         1 F0P       0.162000
     41 H5          -6.1080    -3.0670    -8.5790 ha         1 F0P       0.174000
     42 H6          -2.8800    -3.9260    -7.0760 hc         1 F0P       0.079700
     43 H7          -4.5880    -3.5830    -6.7660 hc         1 F0P       0.079700
     44 H9           2.6930    -1.8070    -7.9920 hn         1 F0P       0.435133
     45 H11          1.8230    -0.7660    -5.8770 hx         1 F0P       0.078700
     46 H13          0.8690    -1.4990    -5.2380 hc         1 F0P       0.128200
     47 H14          0.6690    -3.0460    -4.5890 hc         1 F0P       0.128200
     48 H15         -1.7120    -2.3440    -4.1750 h1         1 F0P       0.082200
     49 H16         -1.9600    -3.4490    -5.5350 h1         1 F0P       0.082200
     50 H18         -2.5030    -1.5440    -7.6280 h1         1 F0P       0.032200
     51 H19         -4.2110    -1.2020    -7.3160 h1         1 F0P       0.032200
     52 H20         -0.5870    -0.7420    -5.7150 hc         1 F0P       0.020200
     53 H21         -0.7860    -1.9000    -7.0370 hc         1 F0P       0.020200
     54 H22         -2.4130    -0.5120    -1.1420 h2         1 F0P       0.113700
     55 H23         -0.6470    -0.1650     3.1370 h5         1 F0P       0.066100
     56 H24         -1.4030     2.1200    -2.2010 h1         1 F0P       0.108700
     57 H25         -2.3230     2.0800    -3.5620 h1         1 F0P       0.075700
     58 H26         -2.6570     0.7720    -4.2150 h1         1 F0P       0.207700
     59 H27         -3.8330    -0.5780    -4.6690 h1         1 F0P       0.196700
     60 H28         -3.4060     0.4930    -5.9000 h1         1 F0P       0.196700
     61 H29         -8.2100    -3.3100   -12.6050 hn         1 F0P       0.478800
     62 H30         -6.9720    -4.3690   -12.7350 hn         1 F0P       0.478800
     63 H31          3.9130     0.0010     2.1890 hn         1 F0P       0.456300
     64 H32          3.9910    -0.0040     0.4580 hn         1 F0P       0.456300
     65 H33         -3.7020     1.2450    -0.7580 ho         1 F0P       0.430000
     66 H34         -4.6970     2.4730    -3.5990 ho         1 F0P       0.413000
     67 O            3.6840    -3.2630    -6.3160 o          1 F0P      -0.759800
     68 H1          -4.7580    -3.8750   -12.5750 ha         1 F0P       0.111000
     69 H2A          1.1570    -1.2500    -7.9830 hn         1 F0P       0.435133
     70 H163        -6.7170    -2.7660   -12.9660 hn         1 F0P       0.478800
     71 H8           1.4450    -2.8540    -7.8540 hn         1 F0P       0.435133
@<TRIPOS>BOND
     1    31     4 1
     2    32     7 2
     3    32     3 1
     4     7    33 1
     5     4     3 ar
     6     4    12 ar
     7     3     1 ar
     8    12    25 ar
     9    33     1 1
    10    33    24 1
    11     1    14 ar
    12    26    35 1
    13    26    24 1
    14    26    27 1
    15    25    14 ar
    16    24    37 1
    17    34     2 2
    18    37    28 1
    19    27    28 1
    20    27    36 1
    21    30     2 1
    22     2    10 1
    23    29    28 1
    24    29    21 1
    25    10    11 ar
    26    10     5 ar
    27    22    21 1
    28    22    13 1
    29    11     6 ar
    30    21    20 1
    31     5     9 ar
    32     6    13 1
    33     6     8 ar
    34     9     8 ar
    35    20    23 1
    36    23    19 1
    37    19    16 1
    38    16    15 1
    39    16    17 1
    40    67    17 1
    41    17    18 1
    42     5    68 1
    43     7    38 1
    44     8    39 1
    45     9    40 1
    46    11    41 1
    47    13    42 1
    48    13    43 1
    49    15    71 1
    50    15    44 1
    51    16    45 1
    52    19    46 1
    53    19    47 1
    54    20    48 1
    55    20    49 1
    56    22    50 1
    57    22    51 1
    58    23    52 1
    59    23    53 1
    60    24    54 1
    61    25    55 1
    62    26    56 1
    63    27    57 1
    64    28    58 1
    65    29    59 1
    66    29    60 1
    67    30    61 1
    68    30    62 1
    69    31    63 1
    70    31    64 1
    71    35    65 1
    72    36    66 1
    73    69    15 1
    74    70    30 1
@<TRIPOS>SUBSTRUCTURE
     1 F0P         1 TEMP              0 ****  ****    0 ROOT
