@<TRIPOS>MOLECULE
molecule
   61    64     1     0     0
SMALL
bcc


@<TRIPOS>ATOM
      1 O            0.0000     0.0000     0.0000 o          1 F0Q      -0.667100
      2 C11          1.2160     0.0000     0.0000 c          1 F0Q       0.792100
      3 N1           1.8900     0.0000     1.1680 n          1 F0Q      -0.497800
      4 C4           1.1570     0.0010     2.4360 c3         1 F0Q       0.181300
      5 C5           0.9060    -1.4190     2.8720 ca         1 F0Q      -0.175300
      6 C6           1.8280    -2.0700     3.6720 ca         1 F0Q      -0.065500
      7 C7           1.6000    -3.3720     4.0720 ca         1 F0Q      -0.199500
      8 C8           0.4430    -4.0270     3.6730 ca         1 F0Q       0.194600
      9 N2           0.2120    -5.3460     4.0720 nv         1 F0Q      -0.944200
     10 C9          -0.4820    -3.3710     2.8700 ca         1 F0Q      -0.199500
     11 C10         -0.2510    -2.0680     2.4770 ca         1 F0Q      -0.065500
     12 C3           3.3550    -0.0010     1.1680 c3         1 F0Q       0.103700
     13 C2           3.8560    -1.4220     1.1690 cc         1 F0Q       0.479300
     14 N5           4.1150    -2.1720     2.2410 nc         1 F0Q      -0.384000
     15 N6           4.5220    -3.3200     1.8160 nd         1 F0Q      -0.207800
     16 N            4.5260    -3.3080     0.5290 na         1 F0Q       0.306900
     17 C            4.9250    -4.4270    -0.3290 c3         1 F0Q       0.065600
     18 N7           4.1160    -2.1590     0.1160 nd         1 F0Q      -0.561800
     19 N3           1.8900    -0.0080    -1.1670 ns         1 F0Q      -0.594900
     20 C12          1.1570    -0.0130    -2.4350 c3         1 F0Q       0.064000
     21 C13          2.1370    -0.0210    -3.5810 c          1 F0Q       0.663100
     22 O1           3.3300    -0.0190    -3.3590 o          1 F0Q      -0.597100
     23 N4           1.6880    -0.0270    -4.8520 n          1 F0Q      -0.494800
     24 C14          0.2720    -0.0230    -5.2630 c3         1 F0Q       0.089000
     25 C15          0.2750     0.5810    -6.6890 c3         1 F0Q      -0.096400
     26 C16          1.5820    -0.0150    -7.2760 c3         1 F0Q      -0.087400
     27 C17          2.5290    -0.0340    -6.0570 c3         1 F0Q       0.154000
     28 C18          3.3730    -1.2820    -6.0870 ca         1 F0Q      -0.060300
     29 C23          4.5660    -1.2940    -6.7850 ca         1 F0Q      -0.007900
     30 Br           5.1390     0.2560    -7.7060 br         1 F0Q      -0.099100
     31 C19          2.9580    -2.4130    -5.4100 ca         1 F0Q      -0.106000
     32 C20          3.7320    -3.5580    -5.4360 ca         1 F0Q      -0.116000
     33 C21          4.9220    -3.5720    -6.1390 ca         1 F0Q      -0.129000
     34 C22          5.3410    -2.4400    -6.8120 ca         1 F0Q      -0.099000
     35 H1           1.7430     0.5120     3.1910 h1         1 F0Q       0.062700
     36 H2           0.2110     0.5120     2.3060 h1         1 F0Q       0.062700
     37 H3           2.7310    -1.5580     3.9830 ha         1 F0Q       0.145500
     38 H4           2.3230    -3.8810     4.6990 ha         1 F0Q       0.130000
     39 H5          -0.7220    -5.6570     4.2530 hn         1 F0Q       0.426300
     40 H6           0.9790    -5.9820     4.1630 hn         1 F0Q       0.426300
     41 H7          -1.3870    -3.8790     2.5590 ha         1 F0Q       0.130000
     42 H8          -0.9710    -1.5560     1.8510 ha         1 F0Q       0.145500
     43 H9           3.7160     0.5100     2.0520 h1         1 F0Q       0.075200
     44 H10          3.7160     0.5090     0.2830 h1         1 F0Q       0.075200
     45 H11          5.6720    -4.0900    -1.0380 h1         1 F0Q       0.073033
     46 H12          4.0600    -4.7970    -0.8650 h1         1 F0Q       0.073033
     47 H13          5.3390    -5.2210     0.2810 h1         1 F0Q       0.073033
     48 H14          2.8900    -0.0420    -1.1660 hn         1 F0Q       0.343500
     49 H15          0.5360     0.8720    -2.4970 h1         1 F0Q       0.068700
     50 H16          0.5340    -0.8970    -2.4880 h1         1 F0Q       0.068700
     51 H17         -0.3110     0.5980    -4.5940 h1         1 F0Q       0.050200
     52 H18         -0.1160    -1.0340    -5.2830 h1         1 F0Q       0.050200
     53 H19          0.3280     1.6620    -6.6510 hc         1 F0Q       0.060200
     54 H20         -0.5880     0.2460    -7.2520 hc         1 F0Q       0.060200
     55 H21          1.4120    -1.0200    -7.6440 hc         1 F0Q       0.064200
     56 H22          1.9770     0.6250    -8.0560 hc         1 F0Q       0.064200
     57 H23          3.1610     0.8450    -6.0690 h1         1 F0Q       0.086700
     58 H24          2.0250    -2.4030    -4.8590 ha         1 F0Q       0.139000
     59 H25          3.4050    -4.4450    -4.9070 ha         1 F0Q       0.130000
     60 H26          5.5280    -4.4700    -6.1590 ha         1 F0Q       0.133000
     61 H27          6.2750    -2.4500    -7.3600 ha         1 F0Q       0.144000
@<TRIPOS>BOND
     1     9     8 1
     2    14    15 2
     3    14    13 1
     4    15    16 1
     5     8    10 ar
     6     8     7 ar
     7    10    11 ar
     8     7     6 ar
     9    13    12 1
    10    13    18 2
    11    12     3 1
    12    16    18 1
    13    16    17 1
    14    11     5 ar
    15     6     5 ar
    16     5     4 1
    17     3     4 1
    18     3     2 1
    19     1     2 2
    20     2    19 1
    21    26    25 1
    22    26    27 1
    23    25    24 1
    24    24    23 1
    25    22    21 2
    26    23    21 1
    27    23    27 1
    28    19    20 1
    29    21    20 1
    30    27    28 1
    31    30    29 1
    32    28    29 ar
    33    28    31 ar
    34    29    34 ar
    35    31    32 ar
    36    34    33 ar
    37    32    33 ar
    38     4    35 1
    39     4    36 1
    40     6    37 1
    41     7    38 1
    42     9    39 1
    43     9    40 1
    44    10    41 1
    45    11    42 1
    46    12    43 1
    47    12    44 1
    48    17    45 1
    49    17    46 1
    50    17    47 1
    51    19    48 1
    52    20    49 1
    53    20    50 1
    54    24    51 1
    55    24    52 1
    56    25    53 1
    57    25    54 1
    58    26    55 1
    59    26    56 1
    60    27    57 1
    61    31    58 1
    62    32    59 1
    63    33    60 1
    64    34    61 1
@<TRIPOS>SUBSTRUCTURE
     1 F0Q         1 TEMP              0 ****  ****    0 ROOT
