@<TRIPOS>MOLECULE
F0Q
   61    64     1     0     0
SMALL
bcc


@<TRIPOS>ATOM
      1 O            0.0000     0.0000     0.0000 o          1 F0Q      -0.718100
      2 C11          1.2160     0.0000     0.0000 c          1 F0Q       0.599100
      3 N1           1.8900     0.0000     1.1680 n          1 F0Q      -0.168800
      4 C4           1.1570     0.0010     2.4360 c3         1 F0Q       0.137300
      5 C5           0.9060    -1.4190     2.8720 ca         1 F0Q      -0.188300
      6 C6           1.8280    -2.0700     3.6720 ca         1 F0Q      -0.041500
      7 C7           1.6000    -3.3720     4.0720 ca         1 F0Q      -0.177000
      8 C8           0.4430    -4.0270     3.6730 ca         1 F0Q       0.046600
      9 N2           0.2120    -5.3460     4.0720 nv         1 F0Q      -0.481200
     10 C9          -0.4820    -3.3710     2.8700 ca         1 F0Q      -0.177000
     11 C10         -0.2510    -2.0680     2.4770 ca         1 F0Q      -0.041500
     12 C3           3.3550    -0.0010     1.1680 c3         1 F0Q       0.052700
     13 C2           3.8560    -1.4220     1.1690 cc         1 F0Q       0.462300
     14 N5           4.1150    -2.1720     2.2410 nc         1 F0Q      -0.335000
     15 N6           4.5220    -3.3200     1.8160 nd         1 F0Q      -0.369800
     16 N            4.5260    -3.3080     0.5290 na         1 F0Q       0.731900
     17 C            4.9250    -4.4270    -0.3290 c3         1 F0Q       0.022600
     18 N7           4.1160    -2.1590     0.1160 nd         1 F0Q      -0.677800
     19 N3           1.8900    -0.0080    -1.1670 ns         1 F0Q      -0.222900
     20 C12          1.1570    -0.0130    -2.4350 c3         1 F0Q      -0.002000
     21 C13          2.1370    -0.0210    -3.5810 c          1 F0Q       0.590100
     22 O1           3.3300    -0.0190    -3.3590 o          1 F0Q      -0.640100
     23 N4           1.6880    -0.0270    -4.8520 n          1 F0Q      -0.155800
     24 C14          0.2720    -0.0230    -5.2630 c3         1 F0Q       0.041000
     25 C15          0.2750     0.5810    -6.6890 c3         1 F0Q      -0.031400
     26 C16          1.5820    -0.0150    -7.2760 c3         1 F0Q      -0.032400
     27 C17          2.5290    -0.0340    -6.0570 c3         1 F0Q       0.086000
     28 C18          3.3730    -1.2820    -6.0870 ca         1 F0Q      -0.072300
     29 C23          4.5660    -1.2940    -6.7850 ca         1 F0Q       0.052100
     30 Br           5.1390     0.2560    -7.7060 br         1 F0Q      -0.131100
     31 C19          2.9580    -2.4130    -5.4100 ca         1 F0Q      -0.087000
     32 C20          3.7320    -3.5580    -5.4360 ca         1 F0Q      -0.090000
     33 C21          4.9220    -3.5720    -6.1390 ca         1 F0Q      -0.098000
     34 C22          5.3410    -2.4400    -6.8120 ca         1 F0Q      -0.079000
     35 H1           1.7430     0.5120     3.1910 h1         1 F0Q       0.032700
     36 H2           0.2110     0.5120     2.3060 h1         1 F0Q       0.032700
     37 H3           2.7310    -1.5580     3.9830 ha         1 F0Q       0.122500
     38 H4           2.3230    -3.8810     4.6990 ha         1 F0Q       0.109000
     39 H5          -0.7220    -5.6570     4.2530 hn         1 F0Q       0.265300
     40 H6           0.9790    -5.9820     4.1630 hn         1 F0Q       0.265300
     41 H7          -1.3870    -3.8790     2.5590 ha         1 F0Q       0.109000
     42 H8          -0.9710    -1.5560     1.8510 ha         1 F0Q       0.122500
     43 H9           3.7160     0.5100     2.0520 h1         1 F0Q       0.040200
     44 H10          3.7160     0.5090     0.2830 h1         1 F0Q       0.040200
     45 H11          5.6720    -4.0900    -1.0380 h1         1 F0Q       0.036700
     46 H12          4.0600    -4.7970    -0.8650 h1         1 F0Q       0.036700
     47 H13          5.3390    -5.2210     0.2810 h1         1 F0Q       0.036700
     48 H14          2.8900    -0.0420    -1.1660 hn         1 F0Q       0.216500
     49 H15          0.5360     0.8720    -2.4970 h1         1 F0Q       0.037200
     50 H16          0.5340    -0.8970    -2.4880 h1         1 F0Q       0.037200
     51 H17         -0.3110     0.5980    -4.5940 h1         1 F0Q       0.022700
     52 H18         -0.1160    -1.0340    -5.2830 h1         1 F0Q       0.022700
     53 H19          0.3280     1.6620    -6.6510 hc         1 F0Q       0.027700
     54 H20         -0.5880     0.2460    -7.2520 hc         1 F0Q       0.027700
     55 H21          1.4120    -1.0200    -7.6440 hc         1 F0Q       0.033200
     56 H22          1.9770     0.6250    -8.0560 hc         1 F0Q       0.033200
     57 H23          3.1610     0.8450    -6.0690 h1         1 F0Q       0.055700
     58 H24          2.0250    -2.4030    -4.8590 ha         1 F0Q       0.111000
     59 H25          3.4050    -4.4450    -4.9070 ha         1 F0Q       0.102000
     60 H26          5.5280    -4.4700    -6.1590 ha         1 F0Q       0.105000
     61 H27          6.2750    -2.4500    -7.3600 ha         1 F0Q       0.116000
@<TRIPOS>BOND
     1     1     2 2   
     2     2     3 1   
     3     2    19 1   
     4     3     4 1   
     5     3    12 1   
     6     4     5 1   
     7     4    35 1   
     8     4    36 1   
     9     5     6 ar  
    10     5    11 ar  
    11     6     7 ar  
    12     6    37 1   
    13     7     8 ar  
    14     7    38 1   
    15     8     9 1   
    16     8    10 ar  
    17     9    39 1   
    18     9    40 1   
    19    10    11 ar  
    20    10    41 1   
    21    11    42 1   
    22    12    13 1   
    23    12    43 1   
    24    12    44 1   
    25    13    14 1   
    26    13    18 2   
    27    14    15 2   
    28    15    16 1   
    29    16    17 1   
    30    16    18 1   
    31    17    45 1   
    32    17    46 1   
    33    17    47 1   
    34    19    20 1   
    35    19    48 1   
    36    20    21 1   
    37    20    49 1   
    38    20    50 1   
    39    21    22 2   
    40    21    23 1   
    41    23    24 1   
    42    23    27 1   
    43    24    25 1   
    44    24    51 1   
    45    24    52 1   
    46    25    26 1   
    47    25    53 1   
    48    25    54 1   
    49    26    27 1   
    50    26    55 1   
    51    26    56 1   
    52    27    28 1   
    53    27    57 1   
    54    28    29 ar  
    55    28    31 ar  
    56    29    30 1   
    57    29    34 ar  
    58    31    32 ar  
    59    31    58 1   
    60    32    33 ar  
    61    32    59 1   
    62    33    34 ar  
    63    33    60 1   
    64    34    61 1   
@<TRIPOS>SUBSTRUCTURE
     1 F0Q         1 TEMP              0 ****  ****    0 ROOT
