@<TRIPOS>MOLECULE
F0S
   68    72     1     0     0
SMALL
bcc


@<TRIPOS>ATOM
      1 O4           0.0000     0.0000     0.0000 o          1 F0S      -0.636100
      2 C21          1.2170     0.0000     0.0000 c          1 F0S       0.618300
      3 N3           1.8910     0.0000     1.1670 ns         1 F0S      -0.022100
      4 C22          1.2030     0.1830     2.3730 ca         1 F0S      -0.135400
      5 C28          1.8230     0.8250     3.4270 ca         1 F0S      -0.055000
      6 C27          1.1280     1.0030     4.6290 ca         1 F0S      -0.251900
      7 C26          1.4630     1.6180     5.9100 cc         1 F0S       0.433800
      8 N5           0.4250     1.5040     6.6890 nd         1 F0S      -0.633100
      9 N4          -0.6090     0.8430     6.0180 na         1 F0S       0.413900
     10 C25         -0.1920     0.5290     4.7500 ca         1 F0S      -0.191200
     11 C24         -0.7940    -0.1140     3.6700 ca         1 F0S      -0.101000
     12 C23         -0.1080    -0.2780     2.5010 ca         1 F0S      -0.072000
     13 C20          1.9260    -0.0050    -1.2270 ce         1 F0S      -0.323400
     14 C18          2.4590     1.1290    -1.7280 c2         1 F0S      -0.070600
     15 C19          2.2990     2.4210    -0.9710 c3         1 F0S       0.043100
     16 N2           3.1420     1.1230    -2.9120 ns         1 F0S      -0.007100
     17 C17          3.3350     0.0230    -3.6530 c          1 F0S       0.594500
     18 O3           3.9570     0.1160    -4.6930 o          1 F0S      -0.723500
     19 N1           2.8610    -1.1830    -3.2820 ns         1 F0S      -0.186900
     20 C16          2.1160    -1.2840    -2.0160 c3         1 F0S       0.165200
     21 C12          2.8240    -2.2830    -1.1390 ca         1 F0S      -0.167300
     22 C11          4.1930    -2.2150    -0.9850 ca         1 F0S      -0.053000
     23 C13          2.0980    -3.2640    -0.4840 ca         1 F0S      -0.039000
     24 C14          2.7380    -4.1850     0.3240 ca         1 F0S      -0.148000
     25 C15          4.1120    -4.1320     0.4830 ca         1 F0S       0.188900
     26 F            4.7380    -5.0330     1.2720 f          1 F0S      -0.104900
     27 C10          4.8480    -3.1410    -0.1720 ca         1 F0S      -0.183600
     28 C9           6.3150    -3.0770    -0.0080 c          1 F0S       0.588700
     29 O2           6.8960    -3.9460     0.6130 o          1 F0S      -0.631100
     30 N            7.0090    -2.0540    -0.5440 ns         1 F0S      -0.187900
     31 C8           8.4730    -2.0510    -0.4870 c3         1 F0S       0.129300
     32 C7           8.9960    -0.7530    -1.0470 ca         1 F0S      -0.212300
     33 C1           9.2850     0.3020    -0.1970 ca         1 F0S       0.204100
     34 O            9.0970     0.1690     1.1430 os         1 F0S      -0.303900
     35 C            9.4150     1.2970     1.9590 c3         1 F0S       0.244200
     36 C5           9.1950    -0.6150    -2.4120 ca         1 F0S       0.204100
     37 O1           8.9170    -1.6510    -3.2470 os         1 F0S      -0.303900
     38 C6           9.2470    -1.4770    -4.6270 c3         1 F0S       0.244200
     39 C4           9.6750     0.5810    -2.9250 ca         1 F0S      -0.255500
     40 C3           9.9580     1.6340    -2.0750 ca         1 F0S      -0.002000
     41 C2           9.7660     1.4970    -0.7140 ca         1 F0S      -0.255500
     42 H1           2.8860    -0.1060     1.1710 hn         1 F0S       0.170500
     43 H2           2.8780     1.0640     3.3710 ha         1 F0S       0.103000
     44 H3           2.4060     2.0860     6.1670 h4         1 F0S       0.013800
     45 H5          -1.8110    -0.4770     3.7550 ha         1 F0S       0.107000
     46 H6          -0.5850    -0.7750     1.6650 ha         1 F0S       0.156000
     47 H8           2.9810     2.4330    -0.1300 hc         1 F0S       0.024367
     48 H9           2.5210     3.2540    -1.6280 hc         1 F0S       0.024367
     49 H10          1.2810     2.5060    -0.6120 hc         1 F0S       0.024367
     50 H11          3.0110    -1.9910    -3.8540 hn         1 F0S       0.214500
     51 H12          1.1320    -1.6750    -2.2460 h1         1 F0S       0.039700
     52 H13          4.7580    -1.4440    -1.4950 ha         1 F0S       0.114000
     53 H14          1.0220    -3.3090    -0.6050 ha         1 F0S       0.117000
     54 H15          2.1640    -4.9490     0.8330 ha         1 F0S       0.127000
     55 H16          6.5230    -1.2810    -0.9550 hn         1 F0S       0.175500
     56 H17          8.7940    -2.1560     0.5420 h1         1 F0S       0.038700
     57 H18          8.8590    -2.8780    -1.0720 h1         1 F0S       0.038700
     58 H19         10.4630     1.5460     1.8390 h1         1 F0S       0.000200
     59 H20          8.8070     2.1420     1.6600 h1         1 F0S       0.000200
     60 H21          9.2170     1.0590     2.9970 h1         1 F0S       0.000200
     61 H22          8.6770    -0.6510    -5.0340 h1         1 F0S       0.000200
     62 H23         10.3060    -1.2670    -4.7210 h1         1 F0S       0.000200
     63 H24          9.0090    -2.3830    -5.1710 h1         1 F0S       0.000200
     64 H25          9.8290     0.6900    -3.9910 ha         1 F0S       0.126000
     65 H26         10.3330     2.5670    -2.4780 ha         1 F0S       0.100000
     66 H27          9.9900     2.3240    -0.0500 ha         1 F0S       0.126000
     67 H4          -1.5090     0.6340     6.4020 hn         1 F0S       0.153700
     68 H7           3.5200     1.9880    -3.2440 hn         1 F0S       0.186500
@<TRIPOS>BOND
     1     1     2 2   
     2     2     3 1   
     3     2    13 1   
     4     3     4 1   
     5     3    42 1   
     6     4     5 ar  
     7     4    12 ar  
     8     5     6 ar  
     9     5    43 1   
    10     6     7 1   
    11     6    10 ar  
    12     7     8 2   
    13     7    44 1   
    14     8     9 1   
    15     9    10 1   
    16     9    67 1   
    17    10    11 ar  
    18    11    12 ar  
    19    11    45 1   
    20    12    46 1   
    21    13    14 2   
    22    13    20 1   
    23    14    15 1   
    24    14    16 1   
    25    15    47 1   
    26    15    48 1   
    27    15    49 1   
    28    16    17 1   
    29    16    68 1   
    30    17    18 2   
    31    17    19 1   
    32    19    20 1   
    33    19    50 1   
    34    20    21 1   
    35    20    51 1   
    36    21    22 ar  
    37    21    23 ar  
    38    22    27 ar  
    39    22    52 1   
    40    23    24 ar  
    41    23    53 1   
    42    24    25 ar  
    43    24    54 1   
    44    25    26 1   
    45    25    27 ar  
    46    27    28 1   
    47    28    29 2   
    48    28    30 1   
    49    30    31 1   
    50    30    55 1   
    51    31    32 1   
    52    31    56 1   
    53    31    57 1   
    54    32    33 ar  
    55    32    36 ar  
    56    33    34 1   
    57    33    41 ar  
    58    34    35 1   
    59    35    58 1   
    60    35    59 1   
    61    35    60 1   
    62    36    37 1   
    63    36    39 ar  
    64    37    38 1   
    65    38    61 1   
    66    38    62 1   
    67    38    63 1   
    68    39    40 ar  
    69    39    64 1   
    70    40    41 ar  
    71    40    65 1   
    72    41    66 1   
@<TRIPOS>SUBSTRUCTURE
     1 F0S         1 TEMP              0 ****  ****    0 ROOT
