@<TRIPOS>MOLECULE
molecule
   68    72     1     0     0
SMALL
bcc


@<TRIPOS>ATOM
      1 O4           0.0000     0.0000     0.0000 o          1 F0S      -0.593100
      2 C21          1.2170     0.0000     0.0000 c          1 F0S       0.705300
      3 N3           1.8910     0.0000     1.1670 ns         1 F0S      -0.466100
      4 C22          1.2030     0.1830     2.3730 ca         1 F0S       0.011600
      5 C28          1.8230     0.8250     3.4270 ca         1 F0S      -0.097000
      6 C27          1.1280     1.0030     4.6290 ca         1 F0S      -0.239900
      7 C26          1.4630     1.6180     5.9100 cc         1 F0S       0.374800
      8 N5           0.4250     1.5040     6.6890 nd         1 F0S      -0.497100
      9 N4          -0.6090     0.8430     6.0180 na         1 F0S      -0.054100
     10 C25         -0.1920     0.5290     4.7500 ca         1 F0S      -0.029200
     11 C24         -0.7940    -0.1140     3.6700 ca         1 F0S      -0.144000
     12 C23         -0.1080    -0.2780     2.5010 ca         1 F0S      -0.086000
     13 C20          1.9260    -0.0050    -1.2270 ce         1 F0S      -0.309400
     14 C18          2.4590     1.1290    -1.7280 c2         1 F0S       0.091400
     15 C19          2.2990     2.4210    -0.9710 c3         1 F0S      -0.070900
     16 N2           3.1420     1.1230    -2.9120 ns         1 F0S      -0.464100
     17 C17          3.3350     0.0230    -3.6530 c          1 F0S       0.816500
     18 O3           3.9570     0.1160    -4.6930 o          1 F0S      -0.674500
     19 N1           2.8610    -1.1830    -3.2820 ns         1 F0S      -0.577900
     20 C16          2.1160    -1.2840    -2.0160 c3         1 F0S       0.227200
     21 C12          2.8240    -2.2830    -1.1390 ca         1 F0S      -0.154300
     22 C11          4.1930    -2.2150    -0.9850 ca         1 F0S      -0.068000
     23 C13          2.0980    -3.2640    -0.4840 ca         1 F0S      -0.070000
     24 C14          2.7380    -4.1850     0.3240 ca         1 F0S      -0.181000
     25 C15          4.1120    -4.1320     0.4830 ca         1 F0S       0.200900
     26 F            4.7380    -5.0330     1.2720 f          1 F0S      -0.104900
     27 C10          4.8480    -3.1410    -0.1720 ca         1 F0S      -0.188600
     28 C9           6.3150    -3.0770    -0.0080 c          1 F0S       0.669700
     29 O2           6.8960    -3.9460     0.6130 o          1 F0S      -0.592100
     30 N            7.0090    -2.0540    -0.5440 ns         1 F0S      -0.573900
     31 C8           8.4730    -2.0510    -0.4870 c3         1 F0S       0.181300
     32 C7           8.9960    -0.7530    -1.0470 ca         1 F0S      -0.186300
     33 C1           9.2850     0.3020    -0.1970 ca         1 F0S       0.189100
     34 O            9.0970     0.1690     1.1430 os         1 F0S      -0.320900
     35 C            9.4150     1.2970     1.9590 c3         1 F0S       0.128200
     36 C5           9.1950    -0.6150    -2.4120 ca         1 F0S       0.189100
     37 O1           8.9170    -1.6510    -3.2470 os         1 F0S      -0.320900
     38 C6           9.2470    -1.4770    -4.6270 c3         1 F0S       0.128200
     39 C4           9.6750     0.5810    -2.9250 ca         1 F0S      -0.262000
     40 C3           9.9580     1.6340    -2.0750 ca         1 F0S      -0.044000
     41 C2           9.7660     1.4970    -0.7140 ca         1 F0S      -0.262000
     42 H1           2.8860    -0.1060     1.1710 hn         1 F0S       0.328500
     43 H2           2.8780     1.0640     3.3710 ha         1 F0S       0.131000
     44 H3           2.4060     2.0860     6.1670 h4         1 F0S       0.061800
     45 H5          -1.8110    -0.4770     3.7550 ha         1 F0S       0.136000
     46 H6          -0.5850    -0.7750     1.6650 ha         1 F0S       0.177000
     47 H8           2.9810     2.4330    -0.1300 hc         1 F0S       0.064367
     48 H9           2.5210     3.2540    -1.6280 hc         1 F0S       0.064367
     49 H10          1.2810     2.5060    -0.6120 hc         1 F0S       0.064367
     50 H11          3.0110    -1.9910    -3.8540 hn         1 F0S       0.365500
     51 H12          1.1320    -1.6750    -2.2460 h1         1 F0S       0.070700
     52 H13          4.7580    -1.4440    -1.4950 ha         1 F0S       0.141000
     53 H14          1.0220    -3.3090    -0.6050 ha         1 F0S       0.146000
     54 H15          2.1640    -4.9490     0.8330 ha         1 F0S       0.154000
     55 H16          6.5230    -1.2810    -0.9550 hn         1 F0S       0.313500
     56 H17          8.7940    -2.1560     0.5420 h1         1 F0S       0.069200
     57 H18          8.8590    -2.8780    -1.0720 h1         1 F0S       0.069200
     58 H19         10.4630     1.5460     1.8390 h1         1 F0S       0.044533
     59 H20          8.8070     2.1420     1.6600 h1         1 F0S       0.044533
     60 H21          9.2170     1.0590     2.9970 h1         1 F0S       0.044533
     61 H22          8.6770    -0.6510    -5.0340 h1         1 F0S       0.044533
     62 H23         10.3060    -1.2670    -4.7210 h1         1 F0S       0.044533
     63 H24          9.0090    -2.3830    -5.1710 h1         1 F0S       0.044533
     64 H25          9.8290     0.6900    -3.9910 ha         1 F0S       0.139000
     65 H26         10.3330     2.5670    -2.4780 ha         1 F0S       0.133000
     66 H27          9.9900     2.3240    -0.0500 ha         1 F0S       0.139000
     67 H4          -1.5090     0.6340     6.4020 hn         1 F0S       0.332700
     68 H7           3.5200     1.9880    -3.2440 hn         1 F0S       0.351500
@<TRIPOS>BOND
     1    24    23 ar
     2    24    25 ar
     3    26    25 1
     4    23    21 ar
     5    25    27 ar
     6     7     8 2
     7     7     6 1
     8     8     9 1
     9     1     2 2
    10    29    28 2
    11    21    20 1
    12    21    22 ar
    13     6     5 ar
    14     6    10 ar
    15     5     4 ar
    16    27    22 ar
    17    27    28 1
    18    20    19 1
    19    20    13 1
    20     9    10 1
    21     2     3 1
    22     2    13 1
    23    28    30 1
    24    10    11 ar
    25     4     3 1
    26     4    12 ar
    27    19    17 1
    28    13    14 2
    29    11    12 ar
    30    30    31 1
    31    17    18 2
    32    17    16 1
    33    31    32 1
    34    14    16 1
    35    14    15 1
    36    35    34 1
    37    34    33 1
    38    32    33 ar
    39    32    36 ar
    40    38    37 1
    41    33    41 ar
    42    37    36 1
    43    36    39 ar
    44    41    40 ar
    45    39    40 ar
    46     3    42 1
    47     5    43 1
    48     7    44 1
    49    11    45 1
    50    12    46 1
    51    15    47 1
    52    15    48 1
    53    15    49 1
    54    19    50 1
    55    20    51 1
    56    22    52 1
    57    23    53 1
    58    24    54 1
    59    30    55 1
    60    31    56 1
    61    31    57 1
    62    35    58 1
    63    35    59 1
    64    35    60 1
    65    38    61 1
    66    38    62 1
    67    38    63 1
    68    39    64 1
    69    40    65 1
    70    41    66 1
    71     9    67 1
    72    16    68 1
@<TRIPOS>SUBSTRUCTURE
     1 F0S         1 TEMP              0 ****  ****    0 ROOT
