@<TRIPOS>MOLECULE
F0T
   45    46     1     0     0
SMALL
bcc


@<TRIPOS>ATOM
      1 O1           0.0000     0.0000     0.0000 o          1 F0T      -0.600000
      2 C2           1.2080     0.0000     0.0000 c          1 F0T       0.692100
      3 O            1.8790     0.0000     1.1630 os         1 F0T      -0.406900
      4 C1           1.0880    -0.0010     2.3790 c3         1 F0T       0.226400
      5 C            2.0200    -0.0010     3.5940 c3         1 F0T      -0.003100
      6 C3           1.9620    -0.0050    -1.3060 c3         1 F0T       0.025000
      7 N            1.0100    -0.0100    -2.4190 ns         1 F0T      -0.238900
      8 C4           1.4590    -0.0150    -3.6890 c          1 F0T       0.603100
      9 O2           2.6540    -0.0170    -3.9120 o          1 F0T      -0.717100
     10 N1           0.5840    -0.0210    -4.7140 n          1 F0T      -0.163800
     11 C5          -0.8570    -0.0200    -4.4460 c3         1 F0T       0.079000
     12 C6          -1.3580     1.4230    -4.3600 cx         1 F0T      -0.151700
     13 C7          -1.9270     1.8950    -3.0200 cx         1 F0T      -0.076900
     14 C8          -2.8650     1.6390    -4.2020 cx         1 F0T      -0.076900
     15 C9           1.0720    -0.0270    -6.0950 c3         1 F0T       0.136300
     16 C10          1.2390    -1.4490    -6.5620 ca         1 F0T      -0.192300
     17 C11          0.1870    -2.1020    -7.1760 ca         1 F0T      -0.031000
     18 C12          0.3370    -3.4060    -7.6050 ca         1 F0T      -0.195500
     19 C13          1.5470    -4.0620    -7.4210 ca         1 F0T       0.059600
     20 N2           1.7010    -5.3820    -7.8480 nv         1 F0T      -0.447200
     21 C14          2.6040    -3.4020    -6.8040 ca         1 F0T      -0.195500
     22 C15          2.4480    -2.0970    -6.3820 ca         1 F0T      -0.031000
     23 H1           0.4620     0.8840     2.4040 h1         1 F0T       0.009700
     24 H2           0.4630    -0.8850     2.4040 h1         1 F0T       0.009700
     25 H3           1.4300    -0.0460     4.5010 hc         1 F0T       0.012033
     26 H4           2.6750    -0.8610     3.5460 hc         1 F0T       0.012033
     27 H5           2.6130     0.9060     3.5940 hc         1 F0T       0.012033
     28 H6           2.5840    -0.8900    -1.3590 h1         1 F0T       0.046200
     29 H7           2.5840     0.8790    -1.3670 h1         1 F0T       0.046200
     30 H8           0.0260     0.0110    -2.2370 hn         1 F0T       0.210500
     31 H9          -1.0500    -0.5260    -3.5080 h1         1 F0T       0.030200
     32 H10         -1.3740    -0.5340    -5.2470 h1         1 F0T       0.030200
     33 H11         -0.8480     2.1890    -4.9310 hc         1 F0T       0.067700
     34 H12         -1.9520     1.1490    -2.2340 hc         1 F0T       0.047950
     35 H13         -1.7530     2.9360    -2.7780 hc         1 F0T       0.047950
     36 H14         -3.2630     2.5240    -4.6820 hc         1 F0T       0.047950
     37 H15         -3.4620     0.7370    -4.1380 hc         1 F0T       0.047950
     38 H16          0.3590     0.4810    -6.7330 h1         1 F0T       0.032200
     39 H17          2.0260     0.4840    -6.1430 h1         1 F0T       0.032200
     40 H18         -0.7580    -1.5910    -7.3200 ha         1 F0T       0.110500
     41 H19         -0.4880    -3.9170    -8.0860 ha         1 F0T       0.107500
     42 H20          2.5730    -5.8540    -7.7130 hn         1 F0T       0.264800
     43 H21          0.9400    -5.8560    -8.2920 hn         1 F0T       0.264800
     44 H22          3.5500    -3.9100    -6.6600 ha         1 F0T       0.107500
     45 H23          3.2720    -1.5830    -5.9010 ha         1 F0T       0.110500
@<TRIPOS>BOND
     1     1     2 2   
     2     2     3 1   
     3     2     6 1   
     4     3     4 1   
     5     4     5 1   
     6     4    23 1   
     7     4    24 1   
     8     5    25 1   
     9     5    26 1   
    10     5    27 1   
    11     6     7 1   
    12     6    28 1   
    13     6    29 1   
    14     7     8 1   
    15     7    30 1   
    16     8     9 2   
    17     8    10 1   
    18    10    11 1   
    19    10    15 1   
    20    11    12 1   
    21    11    31 1   
    22    11    32 1   
    23    12    13 1   
    24    12    14 1   
    25    12    33 1   
    26    13    14 1   
    27    13    34 1   
    28    13    35 1   
    29    14    36 1   
    30    14    37 1   
    31    15    16 1   
    32    15    38 1   
    33    15    39 1   
    34    16    17 ar  
    35    16    22 ar  
    36    17    18 ar  
    37    17    40 1   
    38    18    19 ar  
    39    18    41 1   
    40    19    20 1   
    41    19    21 ar  
    42    20    42 1   
    43    20    43 1   
    44    21    22 ar  
    45    21    44 1   
    46    22    45 1   
@<TRIPOS>SUBSTRUCTURE
     1 F0T         1 TEMP              0 ****  ****    0 ROOT
