@<TRIPOS>MOLECULE
molecule
   45    46     1     0     0
SMALL
bcc


@<TRIPOS>ATOM
      1 O1           0.0000     0.0000     0.0000 o          1 F0T      -0.561000
      2 C2           1.2080     0.0000     0.0000 c          1 F0T       0.625100
      3 O            1.8790     0.0000     1.1630 os         1 F0T      -0.424900
      4 C1           1.0880    -0.0010     2.3790 c3         1 F0T       0.146400
      5 C            2.0200    -0.0010     3.5940 c3         1 F0T      -0.096100
      6 C3           1.9620    -0.0050    -1.3060 c3         1 F0T       0.088000
      7 N            1.0100    -0.0100    -2.4190 ns         1 F0T      -0.603900
      8 C4           1.4590    -0.0150    -3.6890 c          1 F0T       0.795100
      9 O2           2.6540    -0.0170    -3.9120 o          1 F0T      -0.670100
     10 N1           0.5840    -0.0210    -4.7140 n          1 F0T      -0.496800
     11 C5          -0.8570    -0.0200    -4.4460 c3         1 F0T       0.135000
     12 C6          -1.3580     1.4230    -4.3600 cx         1 F0T      -0.169700
     13 C7          -1.9270     1.8950    -3.0200 cx         1 F0T      -0.136400
     14 C8          -2.8650     1.6390    -4.2020 cx         1 F0T      -0.136400
     15 C9           1.0720    -0.0270    -6.0950 c3         1 F0T       0.181300
     16 C10          1.2390    -1.4490    -6.5620 ca         1 F0T      -0.177300
     17 C11          0.1870    -2.1020    -7.1760 ca         1 F0T      -0.062500
     18 C12          0.3370    -3.4060    -7.6050 ca         1 F0T      -0.216500
     19 C13          1.5470    -4.0620    -7.4210 ca         1 F0T       0.209600
     20 N2           1.7010    -5.3820    -7.8480 nv         1 F0T      -0.921200
     21 C14          2.6040    -3.4020    -6.8040 ca         1 F0T      -0.216500
     22 C15          2.4480    -2.0970    -6.3820 ca         1 F0T      -0.062500
     23 H1           0.4620     0.8840     2.4040 h1         1 F0T       0.049700
     24 H2           0.4630    -0.8850     2.4040 h1         1 F0T       0.049700
     25 H3           1.4300    -0.0460     4.5010 hc         1 F0T       0.049033
     26 H4           2.6750    -0.8610     3.5460 hc         1 F0T       0.049033
     27 H5           2.6130     0.9060     3.5940 hc         1 F0T       0.049033
     28 H6           2.5840    -0.8900    -1.3590 h1         1 F0T       0.083200
     29 H7           2.5840     0.8790    -1.3670 h1         1 F0T       0.083200
     30 H8           0.0260     0.0110    -2.2370 hn         1 F0T       0.336500
     31 H9          -1.0500    -0.5260    -3.5080 h1         1 F0T       0.055700
     32 H10         -1.3740    -0.5340    -5.2470 h1         1 F0T       0.055700
     33 H11         -0.8480     2.1890    -4.9310 hc         1 F0T       0.091700
     34 H12         -1.9520     1.1490    -2.2340 hc         1 F0T       0.075950
     35 H13         -1.7530     2.9360    -2.7780 hc         1 F0T       0.075950
     36 H14         -3.2630     2.5240    -4.6820 hc         1 F0T       0.075950
     37 H15         -3.4620     0.7370    -4.1380 hc         1 F0T       0.075950
     38 H16          0.3590     0.4810    -6.7330 h1         1 F0T       0.062700
     39 H17          2.0260     0.4840    -6.1430 h1         1 F0T       0.062700
     40 H18         -0.7580    -1.5910    -7.3200 ha         1 F0T       0.137000
     41 H19         -0.4880    -3.9170    -8.0860 ha         1 F0T       0.127500
     42 H20          2.5730    -5.8540    -7.7130 hn         1 F0T       0.428800
     43 H21          0.9400    -5.8560    -8.2920 hn         1 F0T       0.428800
     44 H22          3.5500    -3.9100    -6.6600 ha         1 F0T       0.127500
     45 H23          3.2720    -1.5830    -5.9010 ha         1 F0T       0.137000
@<TRIPOS>BOND
     1    20    19 1
     2    19    21 ar
     3    19    18 ar
     4    21    22 ar
     5    18    17 ar
     6    22    16 ar
     7    17    16 ar
     8    16    15 1
     9    15    10 1
    10     9     8 2
    11    10     8 1
    12    10    11 1
    13     8     7 1
    14     4     5 1
    15     4     3 1
    16     1     2 2
    17     3     2 1
    18    11    12 1
    19     2     6 1
    20    12    14 1
    21    12    13 1
    22     7     6 1
    23    14    13 1
    24     4    23 1
    25     4    24 1
    26     5    25 1
    27     5    26 1
    28     5    27 1
    29     6    28 1
    30     6    29 1
    31     7    30 1
    32    11    31 1
    33    11    32 1
    34    12    33 1
    35    13    34 1
    36    13    35 1
    37    14    36 1
    38    14    37 1
    39    15    38 1
    40    15    39 1
    41    17    40 1
    42    18    41 1
    43    20    42 1
    44    20    43 1
    45    21    44 1
    46    22    45 1
@<TRIPOS>SUBSTRUCTURE
     1 F0T         1 TEMP              0 ****  ****    0 ROOT
