@<TRIPOS>MOLECULE
molecule
   45    48     1     0     0
SMALL
bcc


@<TRIPOS>ATOM
      1 C1           0.0000     0.0000     0.0000 ca         1 F0V      -0.053300
      2 C2           1.3830     0.0000     0.0000 ca         1 F0V      -0.091000
      3 C3           2.0750     0.0000     1.1950 ca         1 F0V      -0.123000
      4 C11          1.7970     1.4590     6.8800 cc         1 F0V       0.137500
      5 C12          3.4190     0.1420     7.6170 cc         1 F0V       0.251800
      6 C13          4.4270    -0.5170     8.5220 c3         1 F0V      -0.057400
      7 C14          4.2250    -2.0100     8.4960 ca         1 F0V      -0.130300
      8 C15          4.8970    -2.7830     7.5680 ca         1 F0V      -0.108000
      9 C16          4.7100    -4.1530     7.5440 ca         1 F0V      -0.119000
     10 C17          3.8530    -4.7500     8.4490 ca         1 F0V      -0.098000
     11 C18          3.1810    -3.9770     9.3780 ca         1 F0V      -0.119000
     12 C19          3.3710    -2.6080     9.4060 ca         1 F0V      -0.108000
     13 C6          -0.6940    -0.0010     1.1960 ca         1 F0V       0.040400
     14 C           -0.7510     0.0060    -1.3070 c3         1 F0V      -0.055800
     15 C5          -0.0080    -0.0020     2.3960 ca         1 F0V      -0.150000
     16 C4           1.3810    -0.0010     2.3990 ca         1 F0V      -0.028200
     17 N            2.0780    -0.0020     3.6100 nu         1 F0V      -0.302200
     18 C7           1.6490     0.7980     4.6580 cc         1 F0V       0.338700
     19 N4           2.2100     0.6890     5.8720 na         1 F0V       0.106700
     20 N1           0.8280     2.3540     6.7120 nd         1 F0V      -0.207000
     21 C9           0.2360     2.5060     5.5410 cd         1 F0V       0.150800
     22 C10         -0.8610     3.5260     5.3740 c3         1 F0V      -0.055900
     23 C8           0.6290     1.7220     4.4680 cc         1 F0V      -0.306000
     24 N3           3.2340    -0.1350     6.3580 n2         1 F0V      -0.266400
     25 N2           2.5500     1.1240     7.9820 na         1 F0V      -0.292000
     26 H1           1.9250     0.0010    -0.9380 ha         1 F0V       0.162000
     27 H2           3.1580     0.0000     1.1950 ha         1 F0V       0.149000
     28 H3           4.2970    -0.1530     9.5340 hc         1 F0V       0.094200
     29 H4           5.4280    -0.2820     8.1800 hc         1 F0V       0.094200
     30 H5           5.5690    -2.3150     6.8590 ha         1 F0V       0.132000
     31 H6           5.2370    -4.7590     6.8170 ha         1 F0V       0.146500
     32 H7           3.7050    -5.8230     8.4290 ha         1 F0V       0.148000
     33 H8           2.5110    -4.4450    10.0880 ha         1 F0V       0.146500
     34 H9           2.8450    -2.0020    10.1340 ha         1 F0V       0.132000
     35 H10         -1.3700     0.8930    -1.3630 hc         1 F0V       0.063033
     36 H11         -1.3770    -0.8760    -1.3680 hc         1 F0V       0.063033
     37 H12         -0.0450     0.0060    -2.1290 hc         1 F0V       0.063033
     38 H13         -0.5530    -0.0030     3.3330 ha         1 F0V       0.151000
     39 H14          2.8880    -0.5800     3.7210 hn         1 F0V       0.332700
     40 H15         -0.8700     4.1910     6.2290 hc         1 F0V       0.085033
     41 H16         -0.6850     4.1000     4.4720 hc         1 F0V       0.085033
     42 H17         -1.8160     3.0200     5.3000 hc         1 F0V       0.085033
     43 H18          0.1560     1.8320     3.4990 ha         1 F0V       0.212000
     44 H19          2.4720     1.5320     8.8920 hn         1 F0V       0.366700
     45 Cl          -2.4310    -0.0030     1.1900 cl         1 F0V      -0.068400
@<TRIPOS>BOND
     1    14     1 1
     2    45    13 1
     3     1    13 ar
     4     1     2 ar
     5    13    15 ar
     6     2     3 ar
     7    15    16 ar
     8     3    16 ar
     9    16    17 1
    10    17    18 2
    11    23    18 1
    12    23    21 2
    13    18    19 1
    14    10     9 ar
    15    10    11 ar
    16     9     8 ar
    17    22    21 1
    18    21    20 1
    19    11    12 ar
    20    19    24 1
    21    19     4 1
    22     8     7 ar
    23    24     5 2
    24    20     4 2
    25     4    25 1
    26    12     7 ar
    27     7     6 1
    28     5    25 1
    29     5     6 1
    30     2    26 1
    31     3    27 1
    32     6    28 1
    33     6    29 1
    34     8    30 1
    35     9    31 1
    36    10    32 1
    37    11    33 1
    38    12    34 1
    39    14    35 1
    40    14    36 1
    41    14    37 1
    42    15    38 1
    43    17    39 1
    44    22    40 1
    45    22    41 1
    46    22    42 1
    47    23    43 1
    48    25    44 1
@<TRIPOS>SUBSTRUCTURE
     1 F0V         1 TEMP              0 ****  ****    0 ROOT
