@<TRIPOS>MOLECULE
F0V
   45    48     1     0     0
SMALL
bcc


@<TRIPOS>ATOM
      1 C1           0.0000     0.0000     0.0000 ca         1 F0V      -0.049300
      2 C2           1.3830     0.0000     0.0000 ca         1 F0V      -0.061000
      3 C3           2.0750     0.0000     1.1950 ca         1 F0V      -0.083000
      4 C11          1.7970     1.4590     6.8800 cc         1 F0V      -0.241600
      5 C12          3.4190     0.1420     7.6170 cc         1 F0V       0.399800
      6 C13          4.4270    -0.5170     8.5220 c3         1 F0V       0.025600
      7 C14          4.2250    -2.0100     8.4960 ca         1 F0V      -0.141300
      8 C15          4.8970    -2.7830     7.5680 ca         1 F0V      -0.081500
      9 C16          4.7100    -4.1530     7.5440 ca         1 F0V      -0.089500
     10 C17          3.8530    -4.7500     8.4490 ca         1 F0V      -0.070000
     11 C18          3.1810    -3.9770     9.3780 ca         1 F0V      -0.089500
     12 C19          3.3710    -2.6080     9.4060 ca         1 F0V      -0.081500
     13 C6          -0.6940    -0.0010     1.1960 ca         1 F0V      -0.031600
     14 C           -0.7510     0.0060    -1.3070 c3         1 F0V       0.050200
     15 C5          -0.0080    -0.0020     2.3960 ca         1 F0V      -0.120000
     16 C4           1.3810    -0.0010     2.3990 ca         1 F0V      -0.205200
     17 N            2.0780    -0.0020     3.6100 nu         1 F0V       0.215800
     18 C7           1.6490     0.7980     4.6580 cc         1 F0V       0.096100
     19 N4           2.2100     0.6890     5.8720 na         1 F0V       0.566300
     20 N1           0.8280     2.3540     6.7120 nd         1 F0V      -0.216600
     21 C9           0.2360     2.5060     5.5410 cd         1 F0V       0.232400
     22 C10         -0.8610     3.5260     5.3740 c3         1 F0V       0.047100
     23 C8           0.6290     1.7220     4.4680 cc         1 F0V      -0.359600
     24 N3           3.2340    -0.1350     6.3580 n2         1 F0V      -0.666800
     25 N2           2.5500     1.1240     7.9820 na         1 F0V       0.180100
     26 H1           1.9250     0.0010    -0.9380 ha         1 F0V       0.128000
     27 H2           3.1580     0.0000     1.1950 ha         1 F0V       0.118000
     28 H3           4.2970    -0.1530     9.5340 hc         1 F0V       0.048200
     29 H4           5.4280    -0.2820     8.1800 hc         1 F0V       0.048200
     30 H5           5.5690    -2.3150     6.8590 ha         1 F0V       0.105000
     31 H6           5.2370    -4.7590     6.8170 ha         1 F0V       0.115000
     32 H7           3.7050    -5.8230     8.4290 ha         1 F0V       0.115000
     33 H8           2.5110    -4.4450    10.0880 ha         1 F0V       0.115000
     34 H9           2.8450    -2.0020    10.1340 ha         1 F0V       0.105000
     35 H10         -1.3700     0.8930    -1.3630 hc         1 F0V       0.025367
     36 H11         -1.3770    -0.8760    -1.3680 hc         1 F0V       0.025367
     37 H12         -0.0450     0.0060    -2.1290 hc         1 F0V       0.025367
     38 H13         -0.5530    -0.0030     3.3330 ha         1 F0V       0.128000
     39 H14          2.8880    -0.5800     3.7210 hn         1 F0V       0.156700
     40 H15         -0.8700     4.1910     6.2290 hc         1 F0V       0.039033
     41 H16         -0.6850     4.1000     4.4720 hc         1 F0V       0.039033
     42 H17         -1.8160     3.0200     5.3000 hc         1 F0V       0.039033
     43 H18          0.1560     1.8320     3.4990 ha         1 F0V       0.190000
     44 H19          2.4720     1.5320     8.8920 hn         1 F0V       0.184700
     45 Cl          -2.4310    -0.0030     1.1900 cl         1 F0V       0.025600
@<TRIPOS>BOND
     1     1     2 ar  
     2     1    13 ar  
     3     1    14 1   
     4     2     3 ar  
     5     2    26 1   
     6     3    16 ar  
     7     3    27 1   
     8     4    19 1   
     9     4    20 2   
    10     4    25 1   
    11     5     6 1   
    12     5    24 2   
    13     5    25 1   
    14     6     7 1   
    15     6    28 1   
    16     6    29 1   
    17     7     8 ar  
    18     7    12 ar  
    19     8     9 ar  
    20     8    30 1   
    21     9    10 ar  
    22     9    31 1   
    23    10    11 ar  
    24    10    32 1   
    25    11    12 ar  
    26    11    33 1   
    27    12    34 1   
    28    13    15 ar  
    29    13    45 1   
    30    14    35 1   
    31    14    36 1   
    32    14    37 1   
    33    15    16 ar  
    34    15    38 1   
    35    16    17 1   
    36    17    18 2   
    37    17    39 1   
    38    18    19 1   
    39    18    23 1   
    40    19    24 1   
    41    20    21 1   
    42    21    22 1   
    43    21    23 2   
    44    22    40 1   
    45    22    41 1   
    46    22    42 1   
    47    23    43 1   
    48    25    44 1   
@<TRIPOS>SUBSTRUCTURE
     1 F0V         1 TEMP              0 ****  ****    0 ROOT
