@<TRIPOS>MOLECULE
F0W
   46    47     1     0     0
SMALL
bcc


@<TRIPOS>ATOM
      1 O2           0.0000     0.0000     0.0000 o          1 F0W      -0.711100
      2 C4           1.2170     0.0000     0.0000 c          1 F0W       0.600100
      3 N            1.8900     0.0000     1.1670 ns         1 F0W      -0.230900
      4 C3           1.1570    -0.0010     2.4360 c3         1 F0W       0.025000
      5 C2           2.1360    -0.0010     3.5810 c          1 F0W       0.689100
      6 O1           3.3240    -0.0010     3.3610 o          1 F0W      -0.594000
      7 O            1.6880    -0.0010     4.8470 os         1 F0W      -0.408900
      8 C1           2.6880    -0.0010     5.9000 c3         1 F0W       0.227400
      9 C            1.9930    -0.0020     7.2630 c3         1 F0W      -0.003100
     10 N1           1.8900    -0.0050    -1.1670 n          1 F0W      -0.165800
     11 C12          3.3550    -0.0050    -1.1670 c3         1 F0W       0.053700
     12 C13          3.8580     1.4150    -1.1730 cc         1 F0W       0.460300
     13 N6           4.1190     2.1550    -0.1240 nd         1 F0W      -0.678800
     14 N5           4.5260     3.3050    -0.5400 na         1 F0W       0.729900
     15 C14          4.9210     4.4270     0.3140 c3         1 F0W       0.022600
     16 N4           4.5290     3.3090    -1.8290 nd         1 F0W      -0.364800
     17 N3           4.1280     2.1570    -2.2470 nc         1 F0W      -0.335000
     18 C5           1.1580    -0.0110    -2.4360 c3         1 F0W       0.130300
     19 C6           0.9080     1.4080    -2.8780 ca         1 F0W      -0.145300
     20 C11          1.8310     2.0540    -3.6790 ca         1 F0W      -0.077000
     21 C10          1.6040     3.3550    -4.0850 ca         1 F0W      -0.122000
     22 C9           0.4470     4.0130    -3.6890 ca         1 F0W       0.028600
     23 N2           0.2140     5.3270    -4.0980 nv         1 F0W      -0.562200
     24 C8          -0.4780     3.3610    -2.8840 ca         1 F0W      -0.122000
     25 C7          -0.2490     2.0580    -2.4860 ca         1 F0W      -0.077000
     26 H1           2.8900    -0.0350     1.1670 hn         1 F0W       0.213500
     27 H2           0.5340     0.8840     2.4930 h1         1 F0W       0.046200
     28 H3           0.5340    -0.8850     2.4930 h1         1 F0W       0.046200
     29 H4           3.3070     0.8830     5.8100 h1         1 F0W       0.009200
     30 H5           3.3070    -0.8860     5.8100 h1         1 F0W       0.009200
     31 H6           2.7390    -0.0030     8.0490 hc         1 F0W       0.011700
     32 H7           1.3750     0.8840     7.3540 hc         1 F0W       0.011700
     33 H8           1.3730    -0.8850     7.3520 hc         1 F0W       0.011700
     34 H9           3.7160    -0.5200    -2.0490 h1         1 F0W       0.039200
     35 H10          3.7160    -0.5130    -0.2800 h1         1 F0W       0.039200
     36 H11          5.6510     4.0890     1.0390 h1         1 F0W       0.037033
     37 H12          4.0500     4.8120     0.8300 h1         1 F0W       0.037033
     38 H13          5.3550     5.2100    -0.2960 h1         1 F0W       0.037033
     39 H14          0.2110    -0.5200    -2.3040 h1         1 F0W       0.034700
     40 H15          1.7430    -0.5260    -3.1880 h1         1 F0W       0.034700
     41 H16          2.7330     1.5400    -3.9870 ha         1 F0W       0.126000
     42 H17          2.3280     3.8610    -4.7130 ha         1 F0W       0.109500
     43 H18          0.5380     6.0910    -3.5380 hn         1 F0W       0.269800
     44 H19         -0.2770     5.5060    -4.9520 hn         1 F0W       0.269800
     45 H20         -1.3830     3.8710    -2.5750 ha         1 F0W       0.109500
     46 H21         -0.9700     1.5490    -1.8580 ha         1 F0W       0.126000
@<TRIPOS>BOND
     1     1     2 2   
     2     2     3 1   
     3     2    10 1   
     4     3     4 1   
     5     3    26 1   
     6     4     5 1   
     7     4    27 1   
     8     4    28 1   
     9     5     6 2   
    10     5     7 1   
    11     7     8 1   
    12     8     9 1   
    13     8    29 1   
    14     8    30 1   
    15     9    31 1   
    16     9    32 1   
    17     9    33 1   
    18    10    11 1   
    19    10    18 1   
    20    11    12 1   
    21    11    34 1   
    22    11    35 1   
    23    12    13 2   
    24    12    17 1   
    25    13    14 1   
    26    14    15 1   
    27    14    16 1   
    28    15    36 1   
    29    15    37 1   
    30    15    38 1   
    31    16    17 2   
    32    18    19 1   
    33    18    39 1   
    34    18    40 1   
    35    19    20 ar  
    36    19    25 ar  
    37    20    21 ar  
    38    20    41 1   
    39    21    22 ar  
    40    21    42 1   
    41    22    23 1   
    42    22    24 ar  
    43    23    43 1   
    44    23    44 1   
    45    24    25 ar  
    46    24    45 1   
    47    25    46 1   
@<TRIPOS>SUBSTRUCTURE
     1 F0W         1 TEMP              0 ****  ****    0 ROOT
