@<TRIPOS>MOLECULE
molecule
   60    63     1     0     0
SMALL
bcc


@<TRIPOS>ATOM
      1 C1           0.0000     0.0000     0.0000 c          1 F0Y       0.753100
      2 C2          -2.1430    -0.5870     1.0280 c3         1 F0Y       0.116000
      3 C3          -2.6270     0.0000     2.3580 c3         1 F0Y      -0.098900
      4 O1           1.2160     0.0000     0.0000 o          1 F0Y      -0.613000
      5 C11         -4.8760     0.4680     4.5030 ca         1 F0Y      -0.114000
      6 C12         -7.2220     1.2470     4.1050 c3         1 F0Y       0.299800
      7 C13         -7.7380     0.8110     2.7330 c3         1 F0Y      -0.033300
      8 C14         -8.6110     1.8610     2.1810 c1         1 F0Y       0.190700
      9 C15         -9.0890     2.5080     5.1000 cc         1 F0Y       0.671700
     10 C16        -10.6090     3.9520     5.6900 ca         1 F0Y       0.006100
     11 C17        -11.6680     4.6740     6.2480 ca         1 F0Y      -0.055000
     12 C18        -11.8950     5.9590     5.7910 ca         1 F0Y      -0.261300
     13 C19        -11.0780     6.4880     4.8060 ca         1 F0Y       0.436600
     14 C20        -11.3300     7.8900     4.3120 c3         1 F0Y      -0.136400
     15 C21         -9.8240     4.5580     4.6930 ca         1 F0Y       0.423800
     16 C22         -0.4610    -0.6160     3.4450 c3         1 F0Y      -0.098900
     17 C23          0.0480    -1.2090     2.1270 c3         1 F0Y       0.116000
     18 N1          -9.2730     2.6720     1.7390 n1         1 F0Y      -0.342800
     19 N2          -8.3450     1.3490     5.0400 nu         1 F0Y      -0.875200
     20 N5          -8.8710     3.6210     4.3380 na         1 F0Y      -0.391000
     21 N4         -10.0850     5.7910     4.2920 nb         1 F0Y      -0.695000
     22 N3         -10.1130     2.7050     5.8920 nd         1 F0Y      -0.662100
     23 C10         -6.2340     0.2300     4.6150 ca         1 F0Y      -0.107300
     24 C9          -6.6840    -0.9410     5.1950 ca         1 F0Y      -0.124000
     25 C8          -5.7780    -1.8740     5.6640 ca         1 F0Y      -0.117000
     26 C7          -4.4200    -1.6350     5.5530 ca         1 F0Y      -0.115000
     27 C6          -3.9700    -0.4670     4.9670 ca         1 F0Y      -0.074300
     28 C5          -2.4900    -0.2070     4.8440 c3         1 F0Y      -0.034100
     29 C4          -1.9830    -0.7680     3.5150 c3         1 F0Y      -0.068700
     30 N           -0.6730    -0.5780     1.0140 n          1 F0Y      -0.479800
     31 O           -0.6740     0.5810    -1.0110 os         1 F0Y      -0.442900
     32 C            0.1170     1.1880    -2.0670 c3         1 F0Y       0.157700
     33 H1          -2.4990    -1.6050     0.9300 h1         1 F0Y       0.061700
     34 H2          -2.5160     0.0150     0.2090 h1         1 F0Y       0.061700
     35 H3          -2.3430     1.0440     2.4160 hc         1 F0Y       0.053200
     36 H4          -3.7050    -0.0910     2.4200 hc         1 F0Y       0.053200
     37 H5          -4.5230     1.3840     4.0440 ha         1 F0Y       0.136000
     38 H6          -6.7360     2.2110     4.0190 h1         1 F0Y       0.062700
     39 H7          -6.9000     0.6510     2.0660 hc         1 F0Y       0.083200
     40 H8          -8.3010    -0.1090     2.8340 hc         1 F0Y       0.083200
     41 H9         -12.2930     4.2380     7.0180 ha         1 F0Y       0.146000
     42 H10        -12.6260     6.5880     6.2850 ha         1 F0Y       0.139000
     43 H11        -10.6510     8.1130     3.4980 hc         1 F0Y       0.050700
     44 H12        -11.1690     8.5920     5.1200 hc         1 F0Y       0.050700
     45 H13        -12.3520     7.9710     3.9610 hc         1 F0Y       0.050700
     46 H14         -0.2010     0.4340     3.4920 hc         1 F0Y       0.053200
     47 H15         -0.0080    -1.1430     4.2760 hc         1 F0Y       0.053200
     48 H16          1.1090    -1.0150     2.0280 h1         1 F0Y       0.061700
     49 H17         -0.1340    -2.2770     2.1170 h1         1 F0Y       0.061700
     50 H18         -8.5590     0.5860     5.6510 hn         1 F0Y       0.476800
     51 H19         -8.0840     3.7800     3.7400 hn         1 F0Y       0.306700
     52 H21         -7.7470    -1.1280     5.2830 ha         1 F0Y       0.133000
     53 H22         -6.1310    -2.7910     6.1210 ha         1 F0Y       0.138000
     54 H23         -3.7100    -2.3660     5.9180 ha         1 F0Y       0.137000
     55 H24         -1.9700    -0.6900     5.6620 hc         1 F0Y       0.054700
     56 H25         -2.3070     0.8600     4.8790 hc         1 F0Y       0.054700
     57 H26         -2.2420    -1.8170     3.4380 hc         1 F0Y       0.056700
     58 H27          0.7420     0.4330    -2.5290 h1         1 F0Y       0.050033
     59 H28         -0.5430     1.6160    -2.8110 h1         1 F0Y       0.050033
     60 H29          0.7420     1.9660    -1.6470 h1         1 F0Y       0.050033
@<TRIPOS>BOND
     1    32    31 1
     2    17    30 1
     3    17    16 1
     4    31     1 1
     5    30     1 1
     6    30     2 1
     7     1     4 2
     8    16    29 1
     9     2     3 1
    10    29     3 1
    11    29    28 1
    12    12    11 ar
    13    12    13 ar
    14    14    13 1
    15    11    10 ar
    16    28    27 1
    17    13    21 ar
    18    26    27 ar
    19    26    25 ar
    20    27     5 ar
    21    25    24 ar
    22    10    15 ar
    23    10    22 1
    24    21    15 ar
    25    15    20 1
    26    22     9 2
    27     5    23 ar
    28    24    23 ar
    29    23     6 1
    30    20     9 1
    31     9    19 1
    32     6    19 1
    33     6     7 1
    34     7     8 1
    35     8    18 3
    36     2    33 1
    37     2    34 1
    38     3    35 1
    39     3    36 1
    40     5    37 1
    41     6    38 1
    42     7    39 1
    43     7    40 1
    44    11    41 1
    45    12    42 1
    46    14    43 1
    47    14    44 1
    48    14    45 1
    49    16    46 1
    50    16    47 1
    51    17    48 1
    52    17    49 1
    53    19    50 1
    54    20    51 1
    55    24    52 1
    56    25    53 1
    57    26    54 1
    58    28    55 1
    59    28    56 1
    60    29    57 1
    61    32    58 1
    62    32    59 1
    63    32    60 1
@<TRIPOS>SUBSTRUCTURE
     1 F0Y         1 TEMP              0 ****  ****    0 ROOT
