@<TRIPOS>MOLECULE
F0Y
   60    63     1     0     0
SMALL
bcc


@<TRIPOS>ATOM
      1 C1           0.0000     0.0000     0.0000 c          1 F0Y       0.697100
      2 C2          -2.1430    -0.5870     1.0280 c3         1 F0Y       0.057000
      3 C3          -2.6270     0.0000     2.3580 c3         1 F0Y      -0.048900
      4 O1           1.2160     0.0000     0.0000 o          1 F0Y      -0.659000
      5 C11         -4.8760     0.4680     4.5030 ca         1 F0Y      -0.086000
      6 C12         -7.2220     1.2470     4.1050 c3         1 F0Y       0.197800
      7 C13         -7.7380     0.8110     2.7330 c3         1 F0Y       0.089700
      8 C14         -8.6110     1.8610     2.1810 c1         1 F0Y       0.167700
      9 C15         -9.0890     2.5080     5.1000 cc         1 F0Y       0.333700
     10 C16        -10.6090     3.9520     5.6900 ca         1 F0Y      -0.016900
     11 C17        -11.6680     4.6740     6.2480 ca         1 F0Y      -0.027000
     12 C18        -11.8950     5.9590     5.7910 ca         1 F0Y      -0.226300
     13 C19        -11.0780     6.4880     4.8060 ca         1 F0Y       0.364600
     14 C20        -11.3300     7.8900     4.3120 c3         1 F0Y      -0.036400
     15 C21         -9.8240     4.5580     4.6930 ca         1 F0Y       0.195800
     16 C22         -0.4610    -0.6160     3.4450 c3         1 F0Y      -0.048900
     17 C23          0.0480    -1.2090     2.1270 c3         1 F0Y       0.057000
     18 N1          -9.2730     2.6720     1.7390 n1         1 F0Y      -0.360800
     19 N2          -8.3450     1.3490     5.0400 nu         1 F0Y      -0.479200
     20 N5          -8.8710     3.6210     4.3380 na         1 F0Y       0.116000
     21 N4         -10.0850     5.7910     4.2920 nb         1 F0Y      -0.545000
     22 N3         -10.1130     2.7050     5.8920 nd         1 F0Y      -0.586100
     23 C10         -6.2340     0.2300     4.6150 ca         1 F0Y      -0.117300
     24 C9          -6.6840    -0.9410     5.1950 ca         1 F0Y      -0.099000
     25 C8          -5.7780    -1.8740     5.6640 ca         1 F0Y      -0.086000
     26 C7          -4.4200    -1.6350     5.5530 ca         1 F0Y      -0.086000
     27 C6          -3.9700    -0.4670     4.9670 ca         1 F0Y      -0.081300
     28 C5          -2.4900    -0.2070     4.8440 c3         1 F0Y       0.031900
     29 C4          -1.9830    -0.7680     3.5150 c3         1 F0Y      -0.049700
     30 N           -0.6730    -0.5780     1.0140 n          1 F0Y      -0.138800
     31 O           -0.6740     0.5810    -1.0110 os         1 F0Y      -0.428900
     32 C            0.1170     1.1880    -2.0670 c3         1 F0Y       0.284700
     33 H1          -2.4990    -1.6050     0.9300 h1         1 F0Y       0.032950
     34 H2          -2.5160     0.0150     0.2090 h1         1 F0Y       0.032950
     35 H3          -2.3430     1.0440     2.4160 hc         1 F0Y       0.027200
     36 H4          -3.7050    -0.0910     2.4200 hc         1 F0Y       0.027200
     37 H5          -4.5230     1.3840     4.0440 ha         1 F0Y       0.114000
     38 H6          -6.7360     2.2110     4.0190 h1         1 F0Y       0.034700
     39 H7          -6.9000     0.6510     2.0660 hc         1 F0Y       0.042700
     40 H8          -8.3010    -0.1090     2.8340 hc         1 F0Y       0.042700
     41 H9         -12.2930     4.2380     7.0180 ha         1 F0Y       0.113000
     42 H10        -12.6260     6.5880     6.2850 ha         1 F0Y       0.114000
     43 H11        -10.6510     8.1130     3.4980 hc         1 F0Y       0.011367
     44 H12        -11.1690     8.5920     5.1200 hc         1 F0Y       0.011367
     45 H13        -12.3520     7.9710     3.9610 hc         1 F0Y       0.011367
     46 H14         -0.2010     0.4340     3.4920 hc         1 F0Y       0.027200
     47 H15         -0.0080    -1.1430     4.2760 hc         1 F0Y       0.027200
     48 H16          1.1090    -1.0150     2.0280 h1         1 F0Y       0.032950
     49 H17         -0.1340    -2.2770     2.1170 h1         1 F0Y       0.032950
     50 H18         -8.5590     0.5860     5.6510 hn         1 F0Y       0.323800
     51 H19         -8.0840     3.7800     3.7400 hn         1 F0Y       0.137700
     52 H21         -7.7470    -1.1280     5.2830 ha         1 F0Y       0.112000
     53 H22         -6.1310    -2.7910     6.1210 ha         1 F0Y       0.109000
     54 H23         -3.7100    -2.3660     5.9180 ha         1 F0Y       0.111000
     55 H24         -1.9700    -0.6900     5.6620 hc         1 F0Y       0.025200
     56 H25         -2.3070     0.8600     4.8790 hc         1 F0Y       0.025200
     57 H26         -2.2420    -1.8170     3.4380 hc         1 F0Y       0.034700
     58 H27          0.7420     0.4330    -2.5290 h1         1 F0Y       0.000700
     59 H28         -0.5430     1.6160    -2.8110 h1         1 F0Y       0.000700
     60 H29          0.7420     1.9660    -1.6470 h1         1 F0Y       0.000700
@<TRIPOS>BOND
     1     1     4 2   
     2     1    30 1   
     3     1    31 1   
     4     2     3 1   
     5     2    30 1   
     6     2    33 1   
     7     2    34 1   
     8     3    29 1   
     9     3    35 1   
    10     3    36 1   
    11     5    23 ar  
    12     5    27 ar  
    13     5    37 1   
    14     6     7 1   
    15     6    19 1   
    16     6    23 1   
    17     6    38 1   
    18     7     8 1   
    19     7    39 1   
    20     7    40 1   
    21     8    18 3   
    22     9    19 1   
    23     9    20 1   
    24     9    22 2   
    25    10    11 ar  
    26    10    15 ar  
    27    10    22 1   
    28    11    12 ar  
    29    11    41 1   
    30    12    13 ar  
    31    12    42 1   
    32    13    14 1   
    33    13    21 ar  
    34    14    43 1   
    35    14    44 1   
    36    14    45 1   
    37    15    20 1   
    38    15    21 ar  
    39    16    17 1   
    40    16    29 1   
    41    16    46 1   
    42    16    47 1   
    43    17    30 1   
    44    17    48 1   
    45    17    49 1   
    46    19    50 1   
    47    20    51 1   
    48    23    24 ar  
    49    24    25 ar  
    50    24    52 1   
    51    25    26 ar  
    52    25    53 1   
    53    26    27 ar  
    54    26    54 1   
    55    27    28 1   
    56    28    29 1   
    57    28    55 1   
    58    28    56 1   
    59    29    57 1   
    60    31    32 1   
    61    32    58 1   
    62    32    59 1   
    63    32    60 1   
@<TRIPOS>SUBSTRUCTURE
     1 F0Y         1 TEMP              0 ****  ****    0 ROOT
