@<TRIPOS>MOLECULE
molecule
   25    26     1     0     0
SMALL
bcc


@<TRIPOS>ATOM
      1 C1           0.0000     0.0000     0.0000 ca         1 F0Z      -0.149000
      2 S            2.2750    -0.0010    -1.5240 sh         1 F0Z      -0.189700
      3 C            1.3900     0.0000     0.0000 ca         1 F0Z       0.083900
      4 C5           2.0840     0.0000     1.2180 ca         1 F0Z      -0.115900
      5 C4           1.3720     0.0000     2.4180 ca         1 F0Z      -0.104000
      6 C3          -0.0070     0.0010     2.4000 ca         1 F0Z      -0.142000
      7 C2          -0.6910     0.0060     1.1940 ca         1 F0Z      -0.104000
      8 C6           3.5620    -0.0000     1.2320 ce         1 F0Z       0.684800
      9 N1           4.2170    -0.0060     2.4450 nu         1 F0Z      -0.929200
     10 C9           5.6590    -0.2930     2.4660 c3         1 F0Z       0.225800
     11 C8           6.2970     0.4670     1.2940 c3         1 F0Z      -0.149400
     12 C7           5.6510    -0.0170    -0.0060 c3         1 F0Z       0.133800
     13 N            4.1970    -0.0020     0.1040 n2         1 F0Z      -0.684900
     14 H1          -0.5410     0.0040    -0.9380 ha         1 F0Z       0.135000
     15 H2           1.5480    -0.6030    -2.4580 hs         1 F0Z       0.129800
     16 H3           1.9010    -0.0020     3.3630 ha         1 F0Z       0.128000
     17 H4          -0.5580     0.0030     3.3320 ha         1 F0Z       0.132000
     18 H5          -1.7740     0.0060     1.1890 ha         1 F0Z       0.132000
     19 H6           3.7210     0.1830     3.2930 hn         1 F0Z       0.433800
     20 H7           6.0870     0.0470     3.4010 h1         1 F0Z       0.042700
     21 H8           5.8230    -1.3580     2.3460 h1         1 F0Z       0.042700
     22 H9           6.0040     1.5030     1.4100 hc         1 F0Z       0.063700
     23 H10          7.3320     0.1490     1.2540 hc         1 F0Z       0.063700
     24 H11          5.8990     0.7270    -0.7540 h1         1 F0Z       0.068200
     25 H12          5.9290    -1.0590    -0.1040 h1         1 F0Z       0.068200
@<TRIPOS>BOND
     1     6     5 ar
     2     6     7 ar
     3     5     4 ar
     4     7     1 ar
     5     4     8 1
     6     4     3 ar
     7     1     3 ar
     8     8    13 2
     9     8     9 1
    10    13    12 1
    11     3     2 1
    12     9    10 1
    13    11    12 1
    14    11    10 1
    15     1    14 1
    16     2    15 1
    17     5    16 1
    18     6    17 1
    19     7    18 1
    20     9    19 1
    21    10    20 1
    22    10    21 1
    23    11    22 1
    24    11    23 1
    25    12    24 1
    26    12    25 1
@<TRIPOS>SUBSTRUCTURE
     1 F0Z         1 TEMP              0 ****  ****    0 ROOT
