@<TRIPOS>MOLECULE
F0Z
   25    26     1     0     0
SMALL
bcc


@<TRIPOS>ATOM
      1 C1           0.0000     0.0000     0.0000 ca         1 F0Z      -0.122000
      2 S            2.2750    -0.0010    -1.5240 sh         1 F0Z      -0.265700
      3 C            1.3900     0.0000     0.0000 ca         1 F0Z       0.115900
      4 C5           2.0840     0.0000     1.2180 ca         1 F0Z      -0.103900
      5 C4           1.3720     0.0000     2.4180 ca         1 F0Z      -0.093000
      6 C3          -0.0070     0.0010     2.4000 ca         1 F0Z      -0.107000
      7 C2          -0.6910     0.0060     1.1940 ca         1 F0Z      -0.082000
      8 C6           3.5620    -0.0000     1.2320 ce         1 F0Z       0.519800
      9 N1           4.2170    -0.0060     2.4450 nu         1 F0Z      -0.539200
     10 C9           5.6590    -0.2930     2.4660 c3         1 F0Z       0.166800
     11 C8           6.2970     0.4670     1.2940 c3         1 F0Z      -0.095400
     12 C7           5.6510    -0.0170    -0.0060 c3         1 F0Z       0.165800
     13 N            4.1970    -0.0020     0.1040 n2         1 F0Z      -0.591900
     14 H1          -0.5410     0.0040    -0.9380 ha         1 F0Z       0.111000
     15 H2           1.5480    -0.6030    -2.4580 hs         1 F0Z       0.136800
     16 H3           1.9010    -0.0020     3.3630 ha         1 F0Z       0.104000
     17 H4          -0.5580     0.0030     3.3320 ha         1 F0Z       0.104000
     18 H5          -1.7740     0.0060     1.1890 ha         1 F0Z       0.103000
     19 H6           3.7210     0.1830     3.2930 hn         1 F0Z       0.300800
     20 H7           6.0870     0.0470     3.4010 h1         1 F0Z       0.015200
     21 H8           5.8230    -1.3580     2.3460 h1         1 F0Z       0.015200
     22 H9           6.0040     1.5030     1.4100 hc         1 F0Z       0.037200
     23 H10          7.3320     0.1490     1.2540 hc         1 F0Z       0.037200
     24 H11          5.8990     0.7270    -0.7540 h1         1 F0Z       0.034200
     25 H12          5.9290    -1.0590    -0.1040 h1         1 F0Z       0.034200
@<TRIPOS>BOND
     1     1     3 ar  
     2     1     7 ar  
     3     1    14 1   
     4     2     3 1   
     5     2    15 1   
     6     3     4 ar  
     7     4     5 ar  
     8     4     8 1   
     9     5     6 ar  
    10     5    16 1   
    11     6     7 ar  
    12     6    17 1   
    13     7    18 1   
    14     8     9 1   
    15     8    13 2   
    16     9    10 1   
    17     9    19 1   
    18    10    11 1   
    19    10    20 1   
    20    10    21 1   
    21    11    12 1   
    22    11    22 1   
    23    11    23 1   
    24    12    13 1   
    25    12    24 1   
    26    12    25 1   
@<TRIPOS>SUBSTRUCTURE
     1 F0Z         1 TEMP              0 ****  ****    0 ROOT
