@<TRIPOS>MOLECULE
molecule
   37    40     1     0     0
SMALL
bcc


@<TRIPOS>ATOM
      1 N1           0.0000     0.0000     0.0000 ns         1 F10      -0.615900
      2 O3          -1.9930    -0.8730     0.7810 o          1 F10      -0.622500
      3 C10         -1.3710    -3.5540     9.0130 ca         1 F10      -0.078000
      4 C11         -0.2480    -3.3630     5.8950 ca         1 F10      -0.203300
      5 C9          -2.4160    -3.8170     9.8990 ca         1 F10      -0.149000
      6 C14         -0.4190    -2.1570     3.0590 cc         1 F10      -0.101000
      7 C17          1.4670     0.0000     0.0000 c3         1 F10       0.126000
      8 C18          2.0710     0.0000     1.4090 c3         1 F10      -0.038100
      9 C15         -0.0390    -1.2740     2.0210 cc         1 F10      -0.218600
     10 C16         -0.7810    -0.7230     0.9020 c          1 F10       0.758100
     11 C21          2.0790    -3.6840     5.3750 ca         1 F10      -0.254300
     12 C22          2.1760    -4.4440     6.5290 ca         1 F10       0.402200
     13 C19          1.2790    -0.9350     2.2420 cd         1 F10      -0.082600
     14 C12          0.8400    -3.1370     5.0590 ca         1 F10       0.027000
     15 C13          0.6850    -2.3360     3.8690 cd         1 F10      -0.095300
     16 C2          -0.0460    -4.1380     7.0260 cp         1 F10       0.460800
     17 C4          -1.1280    -4.4140     7.9410 cp         1 F10      -0.188500
     18 C5          -1.9340    -5.5400     7.7580 ca         1 F10       0.160900
     19 C7          -2.9790    -5.8030     8.6440 ca         1 F10      -0.173000
     20 C8          -3.2190    -4.9420     9.7150 ca         1 F10      -0.095000
     21 F6          -1.7160    -6.3780     6.7350 f          1 F10      -0.129900
     22 N20          1.7160    -1.5850     3.3600 na         1 F10      -0.146100
     23 N23          1.1420    -4.6860     7.3650 nb         1 F10      -0.640000
     24 HN1         -0.4690     0.5530    -0.6890 hn         1 F10       0.319500
     25 H11         -1.2220    -2.9470     5.6690 ha         1 F10       0.157000
     26 H9          -2.6030    -3.1480    10.7300 ha         1 F10       0.137000
     27 H14         -1.4070    -2.0830     3.4980 ha         1 F10       0.170000
     28 H171         1.7920    -0.9090    -0.4920 h1         1 F10       0.049200
     29 H172         1.7920     0.9090    -0.4920 h1         1 F10       0.049200
     30 H181         3.0860    -0.3720     1.3470 hc         1 F10       0.065700
     31 H182         1.9730     0.9960     1.8240 hc         1 F10       0.065700
     32 H21          2.9400    -3.5210     4.7380 ha         1 F10       0.136000
     33 H22          3.1400    -4.8710     6.7760 h4         1 F10       0.020100
     34 H7          -3.6030    -6.6770     8.5010 ha         1 F10       0.148000
     35 H8          -4.0300    -5.1470    10.4030 ha         1 F10       0.137000
     36 HN20         2.6370    -1.5240     3.7460 hn         1 F10       0.299700
     37 H10         -0.7480    -2.6800     9.1570 ha         1 F10       0.141000
@<TRIPOS>BOND
     1     1    10 1
     2     1     7 1
     3     1    24 1
     4     2    10 2
     5     3     5 ar
     6     3    17 ar
     7     3    37 1
     8     4    16 ar
     9     4    14 ar
    10     4    25 1
    11     5    20 ar
    12     5    26 1
    13     6    15 2
    14     6     9 1
    15     6    27 1
    16     7     8 1
    17     7    28 1
    18     7    29 1
    19     8    13 1
    20     8    30 1
    21     8    31 1
    22     9    10 1
    23     9    13 2
    24    11    12 ar
    25    11    14 ar
    26    11    32 1
    27    12    23 ar
    28    12    33 1
    29    13    22 1
    30    14    15 1
    31    15    22 1
    32    16    23 ar
    33    16    17 1
    34    17    18 ar
    35    18    19 ar
    36    18    21 1
    37    19    20 ar
    38    19    34 1
    39    20    35 1
    40    22    36 1
@<TRIPOS>SUBSTRUCTURE
     1 F10         1 TEMP              0 ****  ****    0 ROOT
