@<TRIPOS>MOLECULE
F11
   71    76     1     0     0
SMALL
bcc


@<TRIPOS>ATOM
      1 C1           0.0000     0.0000     0.0000 ca         1 F11       0.400600
      2 C2           1.3840     0.0000     0.0000 ca         1 F11      -0.172600
      3 C3           2.1990     0.0000     1.2660 c3         1 F11       0.038900
      4 C4           1.3440     0.4320     2.4560 c3         1 F11      -0.030400
      5 C5           0.0650    -0.4150     2.4610 c3         1 F11      -0.027400
      6 C6          -0.8010     0.0130     1.2790 c3         1 F11      -0.067700
      7 N7          -0.6800    -0.0090    -1.1340 nb         1 F11      -0.579000
      8 C8          -0.0850    -0.0150    -2.3280 ca         1 F11       0.382600
      9 C9           1.3270    -0.0080    -2.4090 ca         1 F11      -0.174300
     10 C10          2.0730    -0.0060    -1.2090 ca         1 F11       0.043600
     11 N11          3.4590    -0.0070    -1.2350 nu         1 F11      -0.474100
     12 C14          1.9520    -0.0190    -3.6630 ca         1 F11      -0.098500
     13 C15          1.1920    -0.0270    -4.7950 ca         1 F11      -0.093500
     14 C16         -0.1980    -0.0290    -4.7190 ca         1 F11      -0.099000
     15 C17         -0.8370    -0.0230    -3.5160 ca         1 F11      -0.136300
     16 C19          7.7980     4.4800    -1.6260 c3         1 F11       0.145300
     17 C20          7.3620     3.0260    -1.4340 c3         1 F11      -0.036400
     18 C21          5.8380     2.9350    -1.5230 c3         1 F11      -0.023400
     19 C24          5.4020     1.4810    -1.3300 c3         1 F11      -0.036400
     20 C25          3.8770     1.3900    -1.4210 c3         1 F11       0.145300
     21 C26         10.2890     7.8230    -2.8990 ca         1 F11       0.400600
     22 C27          9.9720     6.4770    -2.8390 ca         1 F11      -0.172600
     23 C28         10.0270     5.5720    -4.0410 c3         1 F11       0.038900
     24 C29         10.0420     6.3910    -5.3300 c3         1 F11      -0.030400
     25 C30         11.1440     7.4510    -5.2140 c3         1 F11      -0.027400
     26 C31         10.7070     8.4900    -4.1850 c3         1 F11      -0.067700
     27 N32         10.2360     8.5830    -1.8180 nb         1 F11      -0.579000
     28 C33          9.8740     8.1110    -0.6240 ca         1 F11       0.382600
     29 C34          9.5260     6.7460    -0.4860 ca         1 F11      -0.174300
     30 C35          9.5860     5.9130    -1.6250 ca         1 F11       0.043600
     31 N36          9.2620     4.5690    -1.5400 nu         1 F11      -0.474100
     32 C39          9.1520     6.2480     0.7690 ca         1 F11      -0.098500
     33 C40          9.1150     7.0860     1.8430 ca         1 F11      -0.093500
     34 C41          9.4520     8.4310     1.7100 ca         1 F11      -0.099000
     35 C42          9.8250     8.9450     0.5060 ca         1 F11      -0.136300
     36 H3C1         3.0280     0.6890     1.1560 hc         1 F11       0.028700
     37 H3C2         2.5790    -0.9990     1.4450 hc         1 F11       0.028700
     38 H4C1         1.0860     1.4790     2.3580 hc         1 F11       0.016700
     39 H4C2         1.8910     0.2690     3.3760 hc         1 F11       0.016700
     40 H5C1        -0.4760    -0.2510     3.3850 hc         1 F11       0.017200
     41 H5C2         0.3220    -1.4620     2.3630 hc         1 F11       0.017200
     42 H6C1        -1.6350    -0.6720     1.1830 hc         1 F11       0.029200
     43 H6C2        -1.1740     1.0150     1.4550 hc         1 F11       0.029200
     44 H11          3.9510    -0.7430    -1.7020 hn         1 F11       0.289800
     45 H14          3.0330    -0.0180    -3.7330 ha         1 F11       0.105000
     46 H15          1.6750    -0.0310    -5.7640 ha         1 F11       0.102000
     47 H16         -0.7820    -0.0350    -5.6320 ha         1 F11       0.103000
     48 H17         -1.9190    -0.0250    -3.4750 ha         1 F11       0.117000
     49 H191         7.3530     5.0960    -0.8530 h1         1 F11       0.017450
     50 H192         7.4720     4.8300    -2.5980 h1         1 F11       0.017450
     51 H201         7.8070     2.4110    -2.2070 hc         1 F11       0.018200
     52 H202         7.6890     2.6760    -0.4620 hc         1 F11       0.018200
     53 H211         5.5110     3.2840    -2.4950 hc         1 F11       0.017700
     54 H212         5.3930     3.5510    -0.7510 hc         1 F11       0.017700
     55 H241         5.7280     1.1320    -0.3580 hc         1 F11       0.018200
     56 H242         5.8470     0.8650    -2.1020 hc         1 F11       0.018200
     57 H251         3.4320     2.0060    -0.6490 h1         1 F11       0.017450
     58 H252         3.5520     1.7380    -2.3930 h1         1 F11       0.017450
     59 H282        10.9260     4.9700    -3.9910 hc         1 F11       0.028700
     60 H291         9.0830     6.8760    -5.4640 hc         1 F11       0.016700
     61 H292        10.2490     5.7410    -6.1710 hc         1 F11       0.016700
     62 H301        11.2900     7.9300    -6.1750 hc         1 F11       0.017200
     63 H302        12.0660     6.9830    -4.8890 hc         1 F11       0.017200
     64 H311         9.8710     9.0540    -4.5820 hc         1 F11       0.029200
     65 H312        11.5340     9.1620    -3.9850 hc         1 F11       0.029200
     66 H36          9.7630     3.9720    -0.9110 hn         1 F11       0.289800
     67 H39          8.8880     5.2030     0.8850 ha         1 F11       0.105000
     68 H40          8.8210     6.7020     2.8120 ha         1 F11       0.102000
     69 H41          9.4150     9.0780     2.5780 ha         1 F11       0.103000
     70 H42         10.0840     9.9940     0.4190 ha         1 F11       0.117000
     71 H281         9.1580     4.9260    -4.0390 hc         1 F11       0.028700
@<TRIPOS>BOND
     1     1     2 ar  
     2     1     6 1   
     3     1     7 ar  
     4     2     3 1   
     5     2    10 ar  
     6     3     4 1   
     7     3    36 1   
     8     3    37 1   
     9     4     5 1   
    10     4    38 1   
    11     4    39 1   
    12     5     6 1   
    13     5    40 1   
    14     5    41 1   
    15     6    42 1   
    16     6    43 1   
    17     7     8 ar  
    18     8     9 ar  
    19     8    15 ar  
    20     9    10 ar  
    21     9    12 ar  
    22    10    11 1   
    23    11    20 1   
    24    11    44 1   
    25    12    13 ar  
    26    12    45 1   
    27    13    14 ar  
    28    13    46 1   
    29    14    15 ar  
    30    14    47 1   
    31    15    48 1   
    32    16    17 1   
    33    16    31 1   
    34    16    49 1   
    35    16    50 1   
    36    17    18 1   
    37    17    51 1   
    38    17    52 1   
    39    18    19 1   
    40    18    53 1   
    41    18    54 1   
    42    19    20 1   
    43    19    55 1   
    44    19    56 1   
    45    20    57 1   
    46    20    58 1   
    47    21    22 ar  
    48    21    26 1   
    49    21    27 ar  
    50    22    23 1   
    51    22    30 ar  
    52    23    24 1   
    53    23    59 1   
    54    23    71 1   
    55    24    25 1   
    56    24    60 1   
    57    24    61 1   
    58    25    26 1   
    59    25    62 1   
    60    25    63 1   
    61    26    64 1   
    62    26    65 1   
    63    27    28 ar  
    64    28    29 ar  
    65    28    35 ar  
    66    29    30 ar  
    67    29    32 ar  
    68    30    31 1   
    69    31    66 1   
    70    32    33 ar  
    71    32    67 1   
    72    33    34 ar  
    73    33    68 1   
    74    34    35 ar  
    75    34    69 1   
    76    35    70 1   
@<TRIPOS>SUBSTRUCTURE
     1 F11         1 TEMP              0 ****  ****    0 ROOT
