@<TRIPOS>MOLECULE
F12
   18    18     1     0     0
SMALL
bcc


@<TRIPOS>ATOM
      1 O9           0.0000     0.0000     0.0000 o          1 F12      -0.893300
      2 C7           1.2160     0.0000     0.0000 c          1 F12       1.002200
      3 O8           1.8910     0.0000     1.1670 o          1 F12      -0.893300
      4 C3           1.9480    -0.0010    -1.2690 cc         1 F12      -0.209600
      5 C4           3.3910     0.0000    -1.3110 cc         1 F12      -0.050000
      6 C5           3.9700     0.0000    -2.5240 cd         1 F12      -0.080100
      7 S6           2.5830    -0.0090    -3.6410 ss         1 F12      -0.309800
      8 C2           1.2870    -0.0120    -2.4930 cd         1 F12       0.028500
      9 N1          -0.0780    -0.0190    -2.7350 ns         1 F12       0.056900
     10 C13         -0.5380    -0.0250    -4.0010 c          1 F12       0.519100
     11 O14          0.2420    -0.0240    -4.9300 o          1 F12      -0.650100
     12 C12         -2.0220    -0.0330    -4.2640 c3         1 F12      -0.065100
     13 H4           3.9820     0.0050    -0.4030 ha         1 F12       0.129000
     14 H5           5.0270     0.0030    -2.7650 h4         1 F12       0.144000
     15 HN1         -0.7220    -0.0220    -1.9680 hn         1 F12       0.221500
     16 H121        -2.1990    -0.0340    -5.3330 hc         1 F12       0.016367
     17 H122        -2.4620    -0.9190    -3.8240 hc         1 F12       0.016367
     18 H123        -2.4710     0.8500    -3.8250 hc         1 F12       0.016367
@<TRIPOS>BOND
     1     1     2 1   
     2     2     3 1   
     3     2     4 1   
     4     4     5 1   
     5     4     8 2   
     6     5     6 2   
     7     5    13 1   
     8     6     7 1   
     9     6    14 1   
    10     7     8 1   
    11     8     9 1   
    12     9    10 1   
    13     9    15 1   
    14    10    11 2   
    15    10    12 1   
    16    12    16 1   
    17    12    17 1   
    18    12    18 1   
@<TRIPOS>SUBSTRUCTURE
     1 F12         1 TEMP              0 ****  ****    0 ROOT
