@<TRIPOS>MOLECULE
F13
   31    33     1     0     0
SMALL
bcc


@<TRIPOS>ATOM
      1 F21          0.0000     0.0000     0.0000 f          1 F13      -0.121900
      2 C16          1.3500     0.0000     0.0000 ca         1 F13       0.098900
      3 C15          2.0410     0.0000     1.1970 ca         1 F13      -0.063000
      4 C17          2.0430    -0.0060    -1.2010 ca         1 F13      -0.108000
      5 C18          3.4260    -0.0070    -1.2080 ca         1 F13      -0.081000
      6 C19          4.1260    -0.0020    -0.0190 ca         1 F13      -0.100000
      7 C14          3.4360    -0.0000     1.1940 ca         1 F13      -0.136600
      8 C13          4.1810    -0.0010     2.4710 c          1 F13       0.583700
      9 O20          3.5780    -0.0010     3.5270 o          1 F13      -0.617100
     10 N12          5.5280    -0.0020     2.4650 ns         1 F13      -0.038100
     11 C10          6.2330     0.1090     3.6680 ca         1 F13      -0.084400
     12 C9           7.4530    -0.5390     3.8210 ca         1 F13      -0.118000
     13 C8           8.1530    -0.4320     5.0080 ca         1 F13      -0.076000
     14 C7           7.6460     0.3200     6.0490 ca         1 F13      -0.115000
     15 C6           6.4220     0.9740     5.9040 ca         1 F13      -0.118500
     16 C11          5.7180     0.8710     4.7060 ca         1 F13      -0.053000
     17 C4           5.8760     1.7820     7.0180 cc         1 F13       0.305000
     18 N5           4.7400     2.4480     7.0190 nd         1 F13      -0.381000
     19 N1           4.5670     3.0410     8.1450 nd         1 F13       0.034000
     20 N2           5.5580     2.8030     8.9340 nc         1 F13      -0.400800
     21 N3           6.4470     1.9700     8.2340 na         1 F13       0.288600
     22 H15          1.5000     0.0010     2.1360 ha         1 F13       0.146000
     23 H17          1.4990    -0.0090    -2.1380 ha         1 F13       0.120000
     24 H18          3.9610    -0.0100    -2.1500 ha         1 F13       0.110000
     25 H19          5.2090    -0.0030    -0.0270 ha         1 F13       0.103000
     26 HN12         6.0240    -0.0860     1.6000 hn         1 F13       0.175500
     27 H9           7.8560    -1.1300     3.0080 ha         1 F13       0.108000
     28 H8           9.1030    -0.9390     5.1220 ha         1 F13       0.107000
     29 H7           8.1970     0.4000     6.9780 ha         1 F13       0.096000
     30 H11          4.7670     1.3780     4.5880 ha         1 F13       0.166000
     31 HN3          7.3170     1.6000     8.5600 hn         1 F13       0.172700
@<TRIPOS>BOND
     1     1     2 1   
     2     2     3 ar  
     3     2     4 ar  
     4     3     7 ar  
     5     3    22 1   
     6     4     5 ar  
     7     4    23 1   
     8     5     6 ar  
     9     5    24 1   
    10     6     7 ar  
    11     6    25 1   
    12     7     8 1   
    13     8     9 2   
    14     8    10 1   
    15    10    11 1   
    16    10    26 1   
    17    11    12 ar  
    18    11    16 ar  
    19    12    13 ar  
    20    12    27 1   
    21    13    14 ar  
    22    13    28 1   
    23    14    15 ar  
    24    14    29 1   
    25    15    16 ar  
    26    15    17 1   
    27    16    30 1   
    28    17    18 2   
    29    17    21 1   
    30    18    19 1   
    31    19    20 2   
    32    20    21 1   
    33    21    31 1   
@<TRIPOS>SUBSTRUCTURE
     1 F13         1 TEMP              0 ****  ****    0 ROOT
