@<TRIPOS>MOLECULE
molecule
   50    53     1     0     0
SMALL
bcc


@<TRIPOS>ATOM
      1 C1           0.0000     0.0000     0.0000 ca         1 F14       0.111100
      2 C2           1.3880     0.0000     0.0000 ca         1 F14      -0.156500
      3 C3           2.0790     0.0000     1.1950 ca         1 F14      -0.143000
      4 O2          11.3770    -2.3270     8.7050 o          1 F14      -0.538500
      5 C11          5.6020    -0.7920     3.8740 ca         1 F14      -0.085300
      6 C12          4.2290    -0.9270     3.9150 ca         1 F14      -0.123000
      7 C13          6.4850    -1.9410     4.2910 c3         1 F14       0.299800
      8 C14          6.9940    -2.6710     3.0460 c3         1 F14      -0.109100
      9 C15          8.2750    -2.2540     5.9700 cc         1 F14       0.850900
     10 C16         10.6070    -3.2100     8.4120 c          1 F14       0.620300
     11 C17         10.6870    -4.5770     9.0660 c3         1 F14      -0.270700
     12 C18          9.6730    -5.6030     8.6040 c2         1 F14       0.484300
     13 C19          9.6600    -6.9920     9.1880 c3         1 F14      -0.126400
     14 C20          8.7720    -4.0150     7.1500 cc         1 F14       0.694500
     15 N3           8.8100    -5.2540     7.7100 ne         1 F14      -0.650700
     16 N2           9.6400    -3.0220     7.4880 n          1 F14      -0.085500
     17 N1           9.3000    -1.9040     6.7120 nd         1 F14      -0.566800
     18 N4           7.9530    -3.5220     6.2330 nd         1 F14      -0.742000
     19 N            7.6240    -1.4290     5.0570 nu         1 F14      -0.899900
     20 C10          6.1690     0.3930     3.4450 ca         1 F14      -0.133000
     21 C9           5.3630     1.4490     3.0610 ca         1 F14      -0.113000
     22 C8           3.9890     1.3210     3.1050 ca         1 F14      -0.153000
     23 C7           3.4170     0.1310     3.5300 ca         1 F14       0.111100
     24 C4           1.3850     0.0020     2.3970 ca         1 F14       0.096100
     25 C5          -0.0020     0.0010     2.3970 ca         1 F14      -0.143000
     26 C6          -0.6940     0.0010     1.2010 ca         1 F14      -0.156500
     27 O           -0.6790     0.0050    -1.1780 os         1 F14      -0.329900
     28 C            0.0990     0.0040    -2.3760 c3         1 F14       0.129700
     29 H1           1.9300    -0.0010    -0.9380 ha         1 F14       0.143000
     30 H2           3.1620    -0.0000     1.1950 ha         1 F14       0.147500
     31 H3           3.7850    -1.8410     4.2910 ha         1 F14       0.151000
     32 H4           5.9160    -2.6290     4.9050 h1         1 F14       0.084700
     33 H5           7.9410    -2.2450     2.7400 hc         1 F14       0.047367
     34 H6           6.2730    -2.5640     2.2440 hc         1 F14       0.047367
     35 H7           7.1270    -3.7220     3.2740 hc         1 F14       0.047367
     36 H8          11.6760    -4.9780     8.8820 hc         1 F14       0.105200
     37 H9          10.5640    -4.4430    10.1340 hc         1 F14       0.105200
     38 H10         10.6740    -7.3680     9.2460 hc         1 F14       0.068700
     39 H11          9.2290    -6.9620    10.1820 hc         1 F14       0.068700
     40 H12          9.0680    -7.6440     8.5570 hc         1 F14       0.068700
     41 H13          7.9180    -0.4800     4.9410 hn         1 F14       0.462800
     42 H14          7.2470     0.4960     3.4120 ha         1 F14       0.133000
     43 H15          5.8100     2.3770     2.7270 ha         1 F14       0.137000
     44 H16          3.3580     2.1490     2.8040 ha         1 F14       0.147000
     45 H17         -0.5430     0.0020     3.3360 ha         1 F14       0.147500
     46 H18         -1.7770     0.0010     1.2020 ha         1 F14       0.143000
     47 H19         -0.5620     0.0040    -3.2350 h1         1 F14       0.040700
     48 H20          0.7230    -0.8810    -2.4010 h1         1 F14       0.040700
     49 H21          0.7240     0.8880    -2.4020 h1         1 F14       0.040700
     50 O1           2.0650     0.0030     3.5750 os         1 F14      -0.247200
@<TRIPOS>BOND
     1    28    27 1
     2    27     1 1
     3     2     1 ar
     4     2     3 ar
     5     1    26 ar
     6     3    24 ar
     7     4    10 2
     8    11    10 1
     9    11    12 1
    10    26    25 ar
    11    13    12 1
    12    10    16 1
    13    22    21 ar
    14    22    23 ar
    15    24    25 ar
    16    24    50 1
    17    12    15 2
    18    21    20 ar
    19    50    23 1
    20    23     6 ar
    21    16    17 1
    22    16    14 1
    23    20     5 ar
    24    15    14 1
    25    17     9 2
    26    14    18 2
    27     6     5 ar
    28     5     7 1
    29     9    18 1
    30     9    19 1
    31     7    19 1
    32     7     8 1
    33     2    29 1
    34     3    30 1
    35     6    31 1
    36     7    32 1
    37     8    33 1
    38     8    34 1
    39     8    35 1
    40    11    36 1
    41    11    37 1
    42    13    38 1
    43    13    39 1
    44    13    40 1
    45    19    41 1
    46    20    42 1
    47    21    43 1
    48    22    44 1
    49    25    45 1
    50    26    46 1
    51    28    47 1
    52    28    48 1
    53    28    49 1
@<TRIPOS>SUBSTRUCTURE
     1 F14         1 TEMP              0 ****  ****    0 ROOT
