@<TRIPOS>MOLECULE
F15
   46    45     1     0     0
SMALL
bcc


@<TRIPOS>ATOM
      1 C1          0.0480    0.0000    0.0350 c         1 F15      0.907600
      2 O2          1.3100   -0.0030   -0.0620 o         1 F15     -0.854800
      3 O3         -0.5700    0.0040    1.1390 o         1 F15     -0.854800
      4 C4         -0.7550   -0.0000   -1.2770 c3        1 F15     -0.193400
      5 C5         -2.2440   -0.0000   -1.0390 c3        1 F15     -0.062400
      6 C6         -4.5170    0.0000   -2.0880 c3        1 F15     -0.078400
      7 C7         -5.2980    0.0000   -3.3850 c3        1 F15     -0.078400
      8 C8         -3.0240    0.0000   -2.3380 c3        1 F15     -0.079400
      9 C9         -6.7900    0.0000   -3.1310 c3        1 F15     -0.079400
     10 C10        -7.5710    0.0000   -4.4280 c3        1 F15     -0.078400
     11 C11        -9.0630    0.0000   -4.1740 c3        1 F15     -0.079400
     12 C12        -9.8430   -0.0000   -5.4710 c3        1 F15     -0.078400
     13 C13       -11.3350   -0.0000   -5.2160 c3        1 F15     -0.079400
     14 C2        -12.1150    0.0000   -6.5130 c3        1 F15     -0.079400
     15 C3        -13.6070   -0.0000   -6.2580 c3        1 F15     -0.079400
     16 C14       -14.3890    0.0000   -7.5540 c3        1 F15     -0.080400
     17 C15       -15.8750    0.0000   -7.3050 c3        1 F15     -0.092100
     18 H22        -0.4580    0.9030   -1.8680 hc        1 F15      0.018700
     19 H23        -0.4570   -0.9030   -1.8680 hc        1 F15      0.018700
     20 H24        -2.5180    0.8980   -0.4260 hc        1 F15      0.044700
     21 H25        -2.5180   -0.8990   -0.4270 hc        1 F15      0.044700
     22 H26        -4.7940   -0.9020   -1.4810 hc        1 F15      0.036700
     23 H1         -4.7940    0.9020   -1.4810 hc        1 F15      0.036700
     24 H27        -5.0190    0.9020   -3.9900 hc        1 F15      0.033700
     25 H2         -5.0190   -0.9020   -3.9900 hc        1 F15      0.033700
     26 H28        -2.7460    0.9020   -2.9430 hc        1 F15      0.024700
     27 H29        -2.7460   -0.9010   -2.9440 hc        1 F15      0.024700
     28 H30        -7.0680    0.9020   -2.5250 hc        1 F15      0.037700
     29 H31        -7.0680   -0.9020   -2.5250 hc        1 F15      0.037700
     30 H33        -7.2920    0.9020   -5.0340 hc        1 F15      0.036700
     31 H5         -7.2920   -0.9020   -5.0340 hc        1 F15      0.036700
     32 H34        -9.3400   -0.9020   -3.5680 hc        1 F15      0.038700
     33 H6         -9.3400    0.9020   -3.5680 hc        1 F15      0.038700
     34 H36        -9.5650   -0.9020   -6.0770 hc        1 F15      0.037700
     35 H37        -9.5650    0.9020   -6.0770 hc        1 F15      0.037700
     36 H3        -11.6130    0.9020   -4.6100 hc        1 F15      0.038700
     37 H4        -11.6130   -0.9020   -4.6100 hc        1 F15      0.038700
     38 H7        -11.8380    0.9020   -7.1190 hc        1 F15      0.038700
     39 H8        -11.8380   -0.9020   -7.1190 hc        1 F15      0.038700
     40 H9        -13.8850    0.9020   -5.6520 hc        1 F15      0.038700
     41 H10       -13.8850   -0.9020   -5.6520 hc        1 F15      0.038700
     42 H11       -14.1080   -0.9020   -8.1590 hc        1 F15      0.037700
     43 H12       -14.1080    0.9020   -8.1590 hc        1 F15      0.037700
     44 H13       -16.4320    0.0000   -8.2730 hc        1 F15      0.030700
     45 H14       -16.1770    0.9050   -6.7240 hc        1 F15      0.030700
     46 H15       -16.1770   -0.9050   -6.7240 hc        1 F15      0.030700
@<TRIPOS>BOND
     1    1    2 1   
     2    1    3 1   
     3    1    4 1   
     4    4    5 1   
     5    4   18 1   
     6    4   19 1   
     7    5    8 1   
     8    5   20 1   
     9    5   21 1   
    10    6    7 1   
    11    6    8 1   
    12    6   22 1   
    13    6   23 1   
    14    7    9 1   
    15    7   24 1   
    16    7   25 1   
    17    8   26 1   
    18    8   27 1   
    19    9   10 1   
    20    9   28 1   
    21    9   29 1   
    22   10   11 1   
    23   10   30 1   
    24   10   31 1   
    25   11   12 1   
    26   11   32 1   
    27   11   33 1   
    28   12   13 1   
    29   12   34 1   
    30   12   35 1   
    31   13   14 1   
    32   13   36 1   
    33   13   37 1   
    34   14   15 1   
    35   14   38 1   
    36   14   39 1   
    37   15   16 1   
    38   15   40 1   
    39   15   41 1   
    40   16   17 1   
    41   16   42 1   
    42   16   43 1   
    43   17   44 1   
    44   17   45 1   
    45   17   46 1   
@<TRIPOS>SUBSTRUCTURE
     1 F15         1 TEMP              0 ****  ****    0 ROOT
