@<TRIPOS>MOLECULE
molecule
   46    45     1     0     0
SMALL
bcc


@<TRIPOS>ATOM
      1 C1           0.0000     0.0000     0.0000 c          1 F15       0.891600
      2 O2           1.3410     0.0000     0.0000 o          1 F15      -0.858300
      3 O3          -0.6040     0.0000     1.0470 o          1 F15      -0.858300
      4 C4          -0.7540     0.0000    -1.3030 c3         1 F15      -0.182400
      5 C5          -2.2580    -0.0000    -1.0240 c3         1 F15      -0.063400
      6 C6          -4.5280    -0.0000    -2.0690 c3         1 F15      -0.081400
      7 C7          -5.2940     0.0000    -3.3930 c3         1 F15      -0.083400
      8 C8          -3.0240     0.0000    -2.3480 c3         1 F15      -0.088400
      9 C9          -6.7970    -0.0000    -3.1140 c3         1 F15      -0.082400
     10 C10         -7.5630     0.0000    -4.4370 c3         1 F15      -0.082400
     11 C11         -9.0670    -0.0000    -4.1580 c3         1 F15      -0.082400
     12 C12         -9.8330     0.0000    -5.4820 c3         1 F15      -0.082400
     13 C13        -11.3370    -0.0000    -5.2030 c3         1 F15      -0.082400
     14 C2         -12.1020     0.0000    -6.5270 c3         1 F15      -0.082400
     15 C3         -13.6060    -0.0000    -6.2480 c3         1 F15      -0.081400
     16 C14        -14.3720     0.0000    -7.5710 c3         1 F15      -0.084400
     17 C15        -15.8760    -0.0000    -7.2920 c3         1 F15      -0.092100
     18 H22         -0.4930    -0.8840    -1.8720 hc         1 F15       0.026700
     19 H23         -0.4930     0.8840    -1.8720 hc         1 F15       0.026700
     20 H24         -2.5200    -0.8840    -0.4560 hc         1 F15       0.044700
     21 H25         -2.5200     0.8840    -0.4560 hc         1 F15       0.044700
     22 H26         -4.7900    -0.8840    -1.5000 hc         1 F15       0.038700
     23 H1          -4.7900     0.8840    -1.5000 hc         1 F15       0.038700
     24 H27         -5.0330    -0.8840    -3.9620 hc         1 F15       0.035700
     25 H2          -5.0330     0.8840    -3.9620 hc         1 F15       0.035700
     26 H28         -2.7630     0.8840    -2.9160 hc         1 F15       0.028700
     27 H29         -2.7630    -0.8840    -2.9160 hc         1 F15       0.028700
     28 H30         -7.0590     0.8840    -2.5460 hc         1 F15       0.039700
     29 H31         -7.0590    -0.8840    -2.5460 hc         1 F15       0.039700
     30 H33         -7.3020     0.8840    -5.0060 hc         1 F15       0.038700
     31 H5          -7.3020    -0.8840    -5.0060 hc         1 F15       0.038700
     32 H34         -9.3280     0.8840    -3.5900 hc         1 F15       0.039700
     33 H6          -9.3280    -0.8840    -3.5900 hc         1 F15       0.039700
     34 H36         -9.5710    -0.8840    -6.0500 hc         1 F15       0.039700
     35 H37         -9.5710     0.8840    -6.0500 hc         1 F15       0.039700
     36 H3         -11.5980     0.8840    -4.6340 hc         1 F15       0.040700
     37 H4         -11.5980    -0.8840    -4.6340 hc         1 F15       0.040700
     38 H7         -11.8400     0.8840    -7.0950 hc         1 F15       0.039700
     39 H8         -11.8400    -0.8840    -7.0950 hc         1 F15       0.039700
     40 H9         -13.8670     0.8840    -5.6790 hc         1 F15       0.040700
     41 H10        -13.8670    -0.8840    -5.6790 hc         1 F15       0.040700
     42 H11        -14.1100     0.8840    -8.1390 hc         1 F15       0.038700
     43 H12        -14.1100    -0.8840    -8.1390 hc         1 F15       0.038700
     44 H13        -16.4170     0.0000    -8.2300 hc         1 F15       0.030700
     45 H14        -16.1370     0.8850    -6.7240 hc         1 F15       0.030700
     46 H15        -16.1370    -0.8850    -6.7240 hc         1 F15       0.030700
@<TRIPOS>BOND
     1     1     2 1
     2     1     3 1
     3     1     4 1
     4     4     5 1
     5     4    18 1
     6     4    19 1
     7     5     8 1
     8     5    20 1
     9     5    21 1
    10     6     7 1
    11     6     8 1
    12     6    22 1
    13     6    23 1
    14     7     9 1
    15     7    24 1
    16     7    25 1
    17     8    26 1
    18     8    27 1
    19     9    10 1
    20     9    28 1
    21     9    29 1
    22    10    11 1
    23    10    30 1
    24    10    31 1
    25    11    12 1
    26    11    32 1
    27    11    33 1
    28    12    13 1
    29    12    34 1
    30    12    35 1
    31    13    14 1
    32    13    36 1
    33    13    37 1
    34    14    15 1
    35    14    38 1
    36    14    39 1
    37    15    16 1
    38    15    40 1
    39    15    41 1
    40    16    17 1
    41    16    42 1
    42    16    43 1
    43    17    44 1
    44    17    45 1
    45    17    46 1
@<TRIPOS>SUBSTRUCTURE
     1 F15         1 TEMP              0 ****  ****    0 ROOT
