@<TRIPOS>MOLECULE
F16
   22    23     1     0     0
SMALL
bcc


@<TRIPOS>ATOM
      1 C1           0.0000     0.0000     0.0000 ce         1 F16       0.003700
      2 C3           1.3540     0.0000     0.0000 cf         1 F16      -0.122200
      3 C4           1.9690     0.0000     1.3070 c          1 F16       0.620700
      4 N5           1.1570    -0.0000     2.3800 ns         1 F16      -0.271300
      5 S6          -0.3890     0.0070     1.7370 sy         1 F16       0.999500
      6 O7          -0.9510     1.2780     2.0350 o          1 F16      -0.558300
      7 O8          -0.9600    -1.2610     2.0270 o          1 F16      -0.558300
      8 O9           3.1800     0.0010     1.4340 o          1 F16      -0.612500
      9 C10         -0.9200    -0.0000    -1.1490 ca         1 F16      -0.001800
     10 C11         -2.3030    -0.0010    -0.9410 ca         1 F16      -0.085000
     11 C12         -3.1620    -0.0000    -2.0200 ca         1 F16      -0.078000
     12 C13         -2.6600     0.0000    -3.3090 ca         1 F16      -0.116000
     13 C14         -1.2880    -0.0000    -3.5270 ca         1 F16       0.124100
     14 C15         -0.4160    -0.0060    -2.4530 ca         1 F16      -0.118000
     15 O1          -0.8020    -0.0010    -4.7970 oh         1 F16      -0.498100
     16 H3           1.8950     0.3890    -0.8540 ha         1 F16       0.142000
     17 H5           1.4190     0.0000     3.3460 hn         1 F16       0.266500
     18 H11         -2.6990    -0.0010     0.0670 ha         1 F16       0.114000
     19 H12         -4.2330    -0.0000    -1.8580 ha         1 F16       0.110000
     20 H13         -3.3400     0.0030    -4.1530 ha         1 F16       0.116000
     21 H15          0.6540    -0.0060    -2.6210 ha         1 F16       0.119000
     22 H1          -0.6510     0.8870    -5.0760 ho         1 F16       0.405000
@<TRIPOS>BOND
     1     1     2 2   
     2     1     5 1   
     3     1     9 1   
     4     2     3 1   
     5     2    16 1   
     6     3     4 1   
     7     3     8 2   
     8     4     5 1   
     9     4    17 1   
    10     5     6 2   
    11     5     7 2   
    12     9    10 ar  
    13     9    14 ar  
    14    10    11 ar  
    15    10    18 1   
    16    11    12 ar  
    17    11    19 1   
    18    12    13 ar  
    19    12    20 1   
    20    13    14 ar  
    21    13    15 1   
    22    14    21 1   
    23    15    22 1   
@<TRIPOS>SUBSTRUCTURE
     1 F16         1 TEMP              0 ****  ****    0 ROOT
