@<TRIPOS>MOLECULE
F18
   26    27     1     0     0
SMALL
bcc


@<TRIPOS>ATOM
      1 C3           0.0000     0.0000     0.0000 ca         1 F18       0.121100
      2 C6           1.3890     0.0000     0.0000 ca         1 F18      -0.127000
      3 C2           2.0810     0.0000     1.1920 ca         1 F18      -0.086000
      4 O3          -0.6760    -0.0010    -1.1780 oh         1 F18      -0.500100
      5 C5           1.3810     0.0020     2.4020 ca         1 F18       0.042400
      6 C4          -0.0160     0.0020     2.3970 ca         1 F18      -0.086000
      7 C1          -0.6990    -0.0050     1.2000 ca         1 F18      -0.127000
      8 N9           2.0640     0.0020     3.5880 ne         1 F18      -0.186400
      9 N13          2.8190    -0.9970     3.8980 nf         1 F18      -0.041400
     10 C14          2.8620    -2.0910     3.0930 cd         1 F18      -0.305900
     11 C19          4.0070    -2.7010     2.5850 cc         1 F18      -0.080700
     12 N16          5.3140    -2.3060     2.8040 nv         1 F18      -0.439200
     13 N20          3.6020    -3.7500     1.8380 na         1 F18       0.444400
     14 N17          2.2060    -3.8080     1.8710 nc         1 F18      -0.738800
     15 C15          1.7510    -2.8340     2.6160 cd         1 F18       0.530200
     16 N18          0.4080    -2.5690     2.8920 nv         1 F18      -0.539500
     17 H6           1.9300    -0.0020    -0.9390 ha         1 F18       0.114000
     18 H2           3.1640     0.0000     1.1910 ha         1 F18       0.113000
     19 H3          -0.8350     0.8880    -1.4500 ho         1 F18       0.403000
     20 H4          -0.5610     0.0010     3.3330 ha         1 F18       0.113000
     21 H1          -1.7820    -0.0050     1.1950 ha         1 F18       0.114000
     22 H161         5.6310    -2.1240     3.7350 hn         1 F18       0.276300
     23 H162         5.9580    -2.2650     2.0390 hn         1 F18       0.276300
     24 H20          4.2020    -4.3800     1.3430 hn         1 F18       0.145700
     25 H181         0.1650    -1.8570     3.5520 hn         1 F18       0.282800
     26 H182        -0.3060    -3.1470     2.4950 hn         1 F18       0.282800
@<TRIPOS>BOND
     1     1     2 ar  
     2     1     4 1   
     3     1     7 ar  
     4     2     3 ar  
     5     2    17 1   
     6     3     5 ar  
     7     3    18 1   
     8     4    19 1   
     9     5     6 ar  
    10     5     8 1   
    11     6     7 ar  
    12     6    20 1   
    13     7    21 1   
    14     8     9 2   
    15     9    10 1   
    16    10    11 2   
    17    10    15 1   
    18    11    12 1   
    19    11    13 1   
    20    12    22 1   
    21    12    23 1   
    22    13    14 1   
    23    13    24 1   
    24    14    15 2   
    25    15    16 1   
    26    16    25 1   
    27    16    26 1   
@<TRIPOS>SUBSTRUCTURE
     1 F18         1 TEMP              0 ****  ****    0 ROOT
