@<TRIPOS>MOLECULE
F19
   33    34     1     0     0
SMALL
bcc


@<TRIPOS>ATOM
      1 C1         -0.3850    0.4070    0.3320 ca        1 F19     -0.180000
      2 C2          0.9500    0.7380    0.3700 ca        1 F19     -0.030000
      3 C3          1.7700    0.3530    1.4540 ca        1 F19     -0.196500
      4 C4          1.2190   -0.3570    2.4900 ca        1 F19     -0.058000
      5 C5         -0.1560   -0.7210    2.4890 ca        1 F19     -0.058000
      6 C6         -0.9710   -0.3340    1.3910 ca        1 F19     -0.028000
      7 C7         -2.3450   -0.6990    1.3890 ca        1 F19     -0.124000
      8 C8         -2.8830   -1.4150    2.4310 ca        1 F19     -0.157000
      9 C9         -2.0720   -1.8000    3.5250 ca        1 F19     -0.173000
     10 C10        -0.7420   -1.4600    3.5530 ca        1 F19     -0.102000
     11 S11         3.5780    0.7600    1.4700 sy        1 F19      1.500000
     12 O12         3.9200    0.4470    2.8340 o         1 F19     -0.728200
     13 O13         4.0940   -0.2660    0.6070 o         1 F19     -0.771800
     14 C16         4.7240    4.2400    0.4930 c3        1 F19      0.169400
     15 O17         4.3500    5.5720    0.2820 os        1 F19     -0.591200
     16 C18         3.4480    3.3760    0.6640 c3        1 F19      0.358800
     17 N1          3.6790    2.0690    1.0520 n2        1 F19     -1.032700
     18 O20         6.1490    5.7820   -1.4940 o         1 F19     -0.849500
     19 O21         3.8110    5.4570   -2.1430 oh        1 F19     -0.784400
     20 P           4.8020    6.2800   -1.1310 p5        1 F19      1.430800
     21 O22         4.4070    7.7030   -1.0850 o         1 F19     -0.849500
     22 H1         -1.0200    0.7110   -0.5120 ha        1 F19      0.109000
     23 H2          1.3990    1.3220   -0.4510 ha        1 F19      0.142000
     24 H4          1.8520   -0.6510    3.3470 ha        1 F19      0.153000
     25 H7         -2.9670   -0.3940    0.5360 ha        1 F19      0.112000
     26 H8         -3.9450   -1.6960    2.4290 ha        1 F19      0.101000
     27 H9         -2.5230   -2.3720    4.3480 ha        1 F19      0.103000
     28 H10        -0.1020   -1.7530    4.3990 ha        1 F19      0.121000
     29 H161        5.3390    4.1960    1.4350 h1        1 F19      0.019700
     30 H162        5.3480    3.8730   -0.3670 h1        1 F19      0.019700
     31 H181        2.7890    3.9120    1.4130 h1        1 F19     -0.022800
     32 H182        2.8920    3.4060   -0.3250 h1        1 F19     -0.022800
     33 HA          4.1520    4.5940   -2.3470 ho        1 F19      0.420000
@<TRIPOS>BOND
     1    1    2 ar  
     2    1    6 ar  
     3    1   22 1   
     4    2    3 ar  
     5    2   23 1   
     6    3    4 ar  
     7    3   11 1   
     8    4    5 ar  
     9    4   24 1   
    10    5    6 ar  
    11    5   10 ar  
    12    6    7 ar  
    13    7    8 ar  
    14    7   25 1   
    15    8    9 ar  
    16    8   26 1   
    17    9   10 ar  
    18    9   27 1   
    19   10   28 1   
    20   11   12 1   
    21   11   13 2   
    22   11   17 2   
    23   14   15 1   
    24   14   16 1   
    25   14   29 1   
    26   14   30 1   
    27   15   20 1   
    28   16   17 1   
    29   16   31 1   
    30   16   32 1   
    31   18   20 1   
    32   19   20 1   
    33   19   33 1   
    34   20   21 1   
@<TRIPOS>SUBSTRUCTURE
     1 F19         1 TEMP              0 ****  ****    0 ROOT
