@<TRIPOS>MOLECULE
molecule
   33    34     1     0     0
SMALL
bcc


@<TRIPOS>ATOM
      1 C1           0.0000     0.0000     0.0000 ca         1 F19      -0.138000
      2 C2           1.4000     0.0000     0.0000 ca         1 F19      -0.060000
      3 C3           2.1520     0.0000     1.2400 ca         1 F19      -0.235500
      4 C4           1.4560    -0.3400     2.4240 ca         1 F19      -0.005000
      5 C5           0.0040    -0.3260     2.4850 ca         1 F19      -0.051000
      6 C6          -0.7360    -0.1680     1.2390 ca         1 F19      -0.004000
      7 C7          -2.1690    -0.1800     1.2310 ca         1 F19      -0.134000
      8 C8          -2.8490    -0.4920     2.6150 ca         1 F19      -0.132000
      9 C9          -2.1320    -0.7990     3.8200 ca         1 F19      -0.154000
     10 C10         -0.7150    -0.4450     3.7400 ca         1 F19      -0.097000
     11 S11          3.9100     0.4010     1.2420 sy         1 F19       1.270200
     12 O12          4.2450     0.8450     2.5970 o          1 F19      -0.630800
     13 O13          4.6350    -0.7800     0.8380 o          1 F19      -0.630800
     14 C16          4.2510     4.0000    -0.0190 c3         1 F19       0.197400
     15 O17          3.4260     5.0980     0.3350 os         1 F19      -0.581200
     16 C18          3.4150     2.7390    -0.0750 c3         1 F19       0.198800
     17 N1           4.2860     1.5780     0.0740 n7         1 F19      -0.857100
     18 O20          5.0900     7.1490     0.0340 o          1 F19      -0.943500
     19 O21          3.7790     6.3700    -1.7340 o          1 F19      -0.943500
     20 P            3.8320     6.5640    -0.2390 p5         1 F19       1.371900
     21 O22          2.7840     7.4870     0.1840 o          1 F19      -0.943500
     22 H1          -0.5340     0.0010    -0.9430 ha         1 F19       0.131000
     23 H2           1.9160     0.2520    -0.9180 ha         1 F19       0.141000
     24 H4           2.0070    -0.3510     3.3560 ha         1 F19       0.146000
     25 H7          -2.7450     0.0490     0.3430 ha         1 F19       0.147000
     26 H8          -3.9090    -0.7160     2.6020 ha         1 F19       0.107000
     27 H9          -2.6320    -0.9980     4.7600 ha         1 F19       0.137000
     28 H10         -0.1170    -0.6330     4.6240 ha         1 F19       0.118000
     29 H161         5.0330     3.8830     0.7210 h1         1 F19       0.018700
     30 H162         4.6970     4.1810    -0.9900 h1         1 F19       0.018700
     31 H181         2.6870     2.7520     0.7270 h1         1 F19       0.043200
     32 H182         2.9020     2.6870    -1.0280 h1         1 F19       0.043200
     33 HA           5.0080     1.4040    -0.5970 hn         1 F19       0.453800
@<TRIPOS>BOND
     1     1     2 ar
     2     1     6 ar
     3     1    22 1
     4     2     3 ar
     5     2    23 1
     6     3     4 ar
     7     3    11 1
     8     4     5 ar
     9     4    24 1
    10     5     6 ar
    11     5    10 ar
    12     6     7 ar
    13     7     8 ar
    14     7    25 1
    15     8     9 ar
    16     8    26 1
    17     9    10 ar
    18     9    27 1
    19    10    28 1
    20    11    12 2
    21    11    13 2
    22    11    17 1
    23    14    15 1
    24    14    16 1
    25    14    29 1
    26    14    30 1
    27    15    20 1
    28    16    17 1
    29    16    31 1
    30    16    32 1
    31    17    33 1
    32    18    20 1
    33    19    20 1
    34    20    21 1
@<TRIPOS>SUBSTRUCTURE
     1 F19         1 TEMP              0 ****  ****    0 ROOT
