@<TRIPOS>MOLECULE
F1A
   27    27     1     0     0
SMALL
bcc


@<TRIPOS>ATOM
      1 N            0.0000     0.0000     0.0000 nz         1 F1A      -0.153500
      2 S            1.6550     0.0000     0.0000 sy         1 F1A       0.937200
      3 O1           2.0580     0.0000     1.3630 o          1 F1A      -0.502800
      4 O2           2.0570    -0.9990    -0.9280 o          1 F1A      -0.502800
      5 C1           2.1770     1.5430    -0.6740 ca         1 F1A      -0.232500
      6 C2           2.1950     1.7280    -2.0430 ca         1 F1A       0.034700
      7 C3           2.6040     2.9390    -2.5710 ca         1 F1A      -0.125000
      8 C4           2.9950     3.9630    -1.7290 ca         1 F1A       0.031700
      9 C5           2.9750     3.7780    -0.3600 ca         1 F1A      -0.125000
     10 C6           2.5630     2.5690     0.1680 ca         1 F1A       0.034700
     11 C7           1.7700     0.6110    -2.9600 c3         1 F1A       0.032200
     12 C9           2.5370     2.3690     1.6620 c3         1 F1A       0.032200
     13 C8           3.4420     5.2830    -2.3050 c3         1 F1A       0.044200
     14 HN1         -0.3340    -0.2030     0.9210 hn         1 F1A       0.318467
     15 HN2         -0.3340    -0.6970    -0.6370 hn         1 F1A       0.318467
     16 H3           2.6320     3.0800    -3.6450 ha         1 F1A       0.137000
     17 H71C         1.7350     0.9750    -3.9800 hc         1 F1A       0.030367
     18 H72C         0.7880     0.2580    -2.6690 hc         1 F1A       0.030367
     19 H73C         2.4810    -0.2030    -2.8910 hc         1 F1A       0.030367
     20 H5           3.2960     4.5750     0.3000 ha         1 F1A       0.137000
     21 H81C         3.0140     5.4100    -3.2920 hc         1 F1A       0.028033
     22 H82C         4.5230     5.2980    -2.3770 hc         1 F1A       0.028033
     23 H83C         3.1120     6.0890    -1.6610 hc         1 F1A       0.028033
     24 H91C         3.2560     1.6060     1.9370 hc         1 F1A       0.030367
     25 H92C         1.5450     2.0580     1.9680 hc         1 F1A       0.030367
     26 H93C         2.7910     3.2990     2.1550 hc         1 F1A       0.030367
     27 HN3         -0.3340     0.8990    -0.2870 hn         1 F1A       0.318467
@<TRIPOS>BOND
     1     1     2 1   
     2     1    14 1   
     3     1    15 1   
     4     1    27 1   
     5     2     3 2   
     6     2     4 2   
     7     2     5 1   
     8     5     6 ar  
     9     5    10 ar  
    10     6     7 ar  
    11     6    11 1   
    12     7     8 ar  
    13     7    16 1   
    14     8     9 ar  
    15     8    13 1   
    16     9    10 ar  
    17     9    20 1   
    18    10    12 1   
    19    11    17 1   
    20    11    18 1   
    21    11    19 1   
    22    12    24 1   
    23    12    25 1   
    24    12    26 1   
    25    13    21 1   
    26    13    22 1   
    27    13    23 1   
@<TRIPOS>SUBSTRUCTURE
     1 F1A         1 TEMP              0 ****  ****    0 ROOT
