@<TRIPOS>MOLECULE
F1C
   48    50     1     0     0
SMALL
bcc


@<TRIPOS>ATOM
      1 N1           0.0000     0.0000     0.0000 ns         1 F1C      -0.025600
      2 C2           6.9220    -0.0090    -2.7870 ca         1 F1C      -0.050500
      3 O2          -0.6490    -1.3050     1.6720 o          1 F1C      -0.645600
      4 C4           8.5790    -0.0340    -0.9270 cp         1 F1C       0.023000
      5 C5           8.8400    -0.0470     0.4410 ca         1 F1C      -0.128500
      6 C7          11.1930    -0.0800    -0.0020 ca         1 F1C      -0.124500
      7 C6          10.1430    -0.0690     0.8960 ca         1 F1C      -0.090000
      8 C8          10.9430    -0.0680    -1.3690 ca         1 F1C      -0.097400
      9 C1           5.6050     0.0020    -3.2480 ca         1 F1C      -0.106600
     10 C10         14.2320    -0.8760    -3.0130 c3         1 F1C      -0.071100
     11 C11          9.6360    -0.0450    -1.8340 ca         1 F1C      -0.133000
     12 C12          6.1230    -0.0050    -0.5110 ca         1 F1C      -0.107000
     13 C13          4.8090     0.0010    -0.9690 cp         1 F1C      -0.087500
     14 C14          3.6850     0.0000     0.0000 cp         1 F1C       0.023000
     15 C15          3.9430     0.0000     1.3700 ca         1 F1C      -0.128500
     16 C16          2.8970    -0.0010     2.2690 ca         1 F1C      -0.090000
     17 C17          1.5910    -0.0010     1.8180 ca         1 F1C      -0.124500
     18 C18          1.3240     0.0000     0.4540 ca         1 F1C      -0.097400
     19 C19         -0.9530    -0.6450     0.7010 c          1 F1C       0.554600
     20 C20         -2.3950    -0.5460     0.2790 c3         1 F1C      -0.071100
     21 C21          2.3700     0.0060    -0.4560 ca         1 F1C      -0.133000
     22 C22          4.5480     0.0080    -2.3360 ca         1 F1C      -0.050500
     23 C3           7.1790    -0.0160    -1.4190 cp         1 F1C      -0.087500
     24 C9          13.1260    -0.7790    -1.9930 c          1 F1C       0.554600
     25 N           12.0080    -0.0800    -2.2760 ns         1 F1C      -0.025600
     26 O            6.2510     0.0040    -5.4910 o          1 F1C      -0.883800
     27 O1          13.2420    -1.3270    -0.9170 o          1 F1C      -0.645600
     28 O3           4.0580     0.0210    -5.1430 o          1 F1C      -0.883800
     29 H13         -0.2430     0.4990    -0.8330 hn         1 F1C       0.167500
     30 H            7.7430     0.0340    -3.4920 ha         1 F1C       0.130000
     31 H1           8.0190    -0.0390     1.1490 ha         1 F1C       0.110000
     32 H3          12.2140    -0.0970     0.3610 ha         1 F1C       0.132500
     33 H2          10.3430    -0.0790     1.9610 ha         1 F1C       0.093500
     34 H5          13.9210    -1.5260    -3.8210 hc         1 F1C       0.020367
     35 H6          15.1210    -1.2820    -2.5440 hc         1 F1C       0.020367
     36 H7          14.4490     0.1100    -3.4050 hc         1 F1C       0.020367
     37 H8           9.4380    -0.0350    -2.8990 ha         1 F1C       0.132000
     38 H9           6.3250    -0.0100     0.5530 ha         1 F1C       0.105000
     39 H10          4.9650    -0.0000     1.7280 ha         1 F1C       0.110000
     40 H11          3.1000    -0.0010     3.3330 ha         1 F1C       0.093500
     41 H12          0.7740    -0.0010     2.5290 ha         1 F1C       0.132500
     42 H14         -2.6440     0.4900     0.0820 hc         1 F1C       0.020367
     43 H15         -2.5500    -1.1310    -0.6200 hc         1 F1C       0.020367
     44 H16         -3.0300    -0.9260     1.0710 hc         1 F1C       0.020367
     45 H17          2.1650     0.0960    -1.5160 ha         1 F1C       0.132000
     46 H18          3.5250     0.0140    -2.6930 ha         1 F1C       0.130000
     47 H4          11.9100     0.3640    -3.1670 hn         1 F1C       0.167500
     48 C            5.3300     0.0090    -4.6980 c          1 F1C       0.975200
@<TRIPOS>BOND
     1     1    18 1   
     2     1    19 1   
     3     1    29 1   
     4     2     9 ar  
     5     2    23 ar  
     6     2    30 1   
     7     3    19 2   
     8     4     5 ar  
     9     4    11 ar  
    10     4    23 1   
    11     5     7 ar  
    12     5    31 1   
    13     6     7 ar  
    14     6     8 ar  
    15     6    32 1   
    16     7    33 1   
    17     8    11 ar  
    18     8    25 1   
    19     9    22 ar  
    20     9    48 1   
    21    10    24 1   
    22    10    34 1   
    23    10    35 1   
    24    10    36 1   
    25    11    37 1   
    26    12    13 ar  
    27    12    23 ar  
    28    12    38 1   
    29    13    14 1   
    30    13    22 ar  
    31    14    15 ar  
    32    14    21 ar  
    33    15    16 ar  
    34    15    39 1   
    35    16    17 ar  
    36    16    40 1   
    37    17    18 ar  
    38    17    41 1   
    39    18    21 ar  
    40    19    20 1   
    41    20    42 1   
    42    20    43 1   
    43    20    44 1   
    44    21    45 1   
    45    22    46 1   
    46    24    25 1   
    47    24    27 2   
    48    25    47 1   
    49    26    48 1   
    50    28    48 1   
@<TRIPOS>SUBSTRUCTURE
     1 F1C         1 TEMP              0 ****  ****    0 ROOT
