@<TRIPOS>MOLECULE
molecule
   48    50     1     0     0
SMALL
bcc


@<TRIPOS>ATOM
      1 N1           0.0000     0.0000     0.0000 ns         1 F1C      -0.473100
      2 C2           6.9220    -0.0090    -2.7870 ca         1 F1C      -0.073000
      3 O2          -0.6490    -1.3050     1.6720 o          1 F1C      -0.602600
      4 C4           8.5790    -0.0340    -0.9270 cp         1 F1C       0.011500
      5 C5           8.8400    -0.0470     0.4410 ca         1 F1C      -0.148000
      6 C7          11.1930    -0.0800    -0.0020 ca         1 F1C      -0.144500
      7 C6          10.1430    -0.0690     0.8960 ca         1 F1C      -0.120000
      8 C8          10.9430    -0.0680    -1.3690 ca         1 F1C       0.047600
      9 C1           5.6050     0.0020    -3.2480 ca         1 F1C      -0.107600
     10 C10         14.2320    -0.8760    -3.0130 c3         1 F1C      -0.172600
     11 C11          9.6360    -0.0450    -1.8340 ca         1 F1C      -0.154000
     12 C12          6.1230    -0.0050    -0.5110 ca         1 F1C      -0.117000
     13 C13          4.8090     0.0010    -0.9690 cp         1 F1C      -0.083500
     14 C14          3.6850     0.0000     0.0000 cp         1 F1C       0.011500
     15 C15          3.9430     0.0000     1.3700 ca         1 F1C      -0.148000
     16 C16          2.8970    -0.0010     2.2690 ca         1 F1C      -0.120000
     17 C17          1.5910    -0.0010     1.8180 ca         1 F1C      -0.144500
     18 C18          1.3240     0.0000     0.4540 ca         1 F1C       0.047600
     19 C19         -0.9530    -0.6450     0.7010 c          1 F1C       0.655600
     20 C20         -2.3950    -0.5460     0.2790 c3         1 F1C      -0.172600
     21 C21          2.3700     0.0060    -0.4560 ca         1 F1C      -0.154000
     22 C22          4.5480     0.0080    -2.3360 ca         1 F1C      -0.073000
     23 C3           7.1790    -0.0160    -1.4190 cp         1 F1C      -0.083500
     24 C9          13.1260    -0.7790    -1.9930 c          1 F1C       0.655600
     25 N           12.0080    -0.0800    -2.2760 ns         1 F1C      -0.473100
     26 O            6.2510     0.0040    -5.4910 o          1 F1C      -0.835300
     27 O1          13.2420    -1.3270    -0.9170 o          1 F1C      -0.602600
     28 O3           4.0580     0.0210    -5.1430 o          1 F1C      -0.835300
     29 H13         -0.2430     0.4990    -0.8330 hn         1 F1C       0.324500
     30 H            7.7430     0.0340    -3.4920 ha         1 F1C       0.152500
     31 H1           8.0190    -0.0390     1.1490 ha         1 F1C       0.130000
     32 H3          12.2140    -0.0970     0.3610 ha         1 F1C       0.149000
     33 H2          10.3430    -0.0790     1.9610 ha         1 F1C       0.121500
     34 H5          13.9210    -1.5260    -3.8210 hc         1 F1C       0.058700
     35 H6          15.1210    -1.2820    -2.5440 hc         1 F1C       0.058700
     36 H7          14.4490     0.1100    -3.4050 hc         1 F1C       0.058700
     37 H8           9.4380    -0.0350    -2.8990 ha         1 F1C       0.150500
     38 H9           6.3250    -0.0100     0.5530 ha         1 F1C       0.117000
     39 H10          4.9650    -0.0000     1.7280 ha         1 F1C       0.130000
     40 H11          3.1000    -0.0010     3.3330 ha         1 F1C       0.121500
     41 H12          0.7740    -0.0010     2.5290 ha         1 F1C       0.149000
     42 H14         -2.6440     0.4900     0.0820 hc         1 F1C       0.058700
     43 H15         -2.5500    -1.1310    -0.6200 hc         1 F1C       0.058700
     44 H16         -3.0300    -0.9260     1.0710 hc         1 F1C       0.058700
     45 H17          2.1650     0.0960    -1.5160 ha         1 F1C       0.150500
     46 H18          3.5250     0.0140    -2.6930 ha         1 F1C       0.152500
     47 H4          11.9100     0.3640    -3.1670 hn         1 F1C       0.324500
     48 C            5.3300     0.0090    -4.6980 c          1 F1C       0.883200
@<TRIPOS>BOND
     1    26    48 1
     2    28    48 1
     3    48     9 1
     4     9     2 ar
     5     9    22 ar
     6     2    23 ar
     7    22    13 ar
     8    23     4 1
     9    23    12 ar
    10     5     7 ar
    11     5     4 ar
    12    13    12 ar
    13    13    14 1
    14     7     6 ar
    15     4    11 ar
    16    15    14 ar
    17    15    16 ar
    18     6     8 ar
    19    11     8 ar
    20    14    21 ar
    21     8    25 1
    22    16    17 ar
    23    21    18 ar
    24    25    24 1
    25    27    24 2
    26    17    18 ar
    27    24    10 1
    28    18     1 1
    29     1    19 1
    30    19     3 2
    31    19    20 1
    32     1    29 1
    33     2    30 1
    34     5    31 1
    35     6    32 1
    36     7    33 1
    37    10    34 1
    38    10    35 1
    39    10    36 1
    40    11    37 1
    41    12    38 1
    42    15    39 1
    43    16    40 1
    44    17    41 1
    45    20    42 1
    46    20    43 1
    47    20    44 1
    48    21    45 1
    49    22    46 1
    50    25    47 1
@<TRIPOS>SUBSTRUCTURE
     1 F1C         1 TEMP              0 ****  ****    0 ROOT
