@<TRIPOS>MOLECULE
F1D
   58    61     1     0     0
SMALL
bcc


@<TRIPOS>ATOM
      1 C1           0.0000     0.0000     0.0000 c          1 F1D       0.691100
      2 C2          -2.1440    -0.5850     1.0350 c3         1 F1D       0.045500
      3 C3          -2.6250     0.0000     2.3660 c3         1 F1D      -0.064400
      4 O1           1.2150     0.0000     0.0000 o          1 F1D      -0.656000
      5 O2          -2.4510    -0.2480     4.7640 os         1 F1D      -0.321900
      6 O3           0.5770    -1.4920    15.4010 o          1 F1D      -0.569500
      7 C11         -2.2660    -1.8770     8.2730 ca         1 F1D      -0.086300
      8 C12         -2.4040    -0.9930     7.2200 ca         1 F1D      -0.092000
      9 C13         -2.6810    -1.4660     9.6610 c3         1 F1D       0.211800
     10 C14         -4.0610    -2.0460     9.9740 c3         1 F1D       0.083700
     11 C15         -4.5190    -1.5480    11.2810 c1         1 F1D       0.160700
     12 C16         -1.5500    -1.3330    11.8590 cc         1 F1D       0.688900
     13 C17         -0.2730    -0.7010    15.0660 c          1 F1D       0.548300
     14 C18         -0.7040     0.4300    15.9790 c3         1 F1D      -0.209700
     15 C19         -1.7770     1.3550    15.4410 c2         1 F1D       0.408300
     16 C20         -2.2810     2.5130    16.2630 c3         1 F1D      -0.050400
     17 C21         -1.8350     0.0990    13.4760 cd         1 F1D       0.502500
     18 N5          -2.2500     1.1290    14.2610 nf         1 F1D      -0.551700
     19 N4          -0.8760    -0.7880    13.8620 n          1 F1D       0.325500
     20 N3          -0.7130    -1.6960    12.8030 nd         1 F1D      -0.693800
     21 N6          -2.2240    -0.2530    12.2590 nc         1 F1D      -0.676000
     22 N2          -1.7060    -1.9720    10.6320 nu         1 F1D      -0.493900
     23 N1          -4.8690    -1.1450    12.2840 n1         1 F1D      -0.365800
     24 C10         -1.7520    -3.1420     8.0510 ca         1 F1D      -0.096000
     25 C9          -1.3710    -3.5220     6.7780 ca         1 F1D      -0.055000
     26 C8          -1.5020    -2.6390     5.7230 ca         1 F1D      -0.169000
     27 C7          -2.0220    -1.3720     5.9420 ca         1 F1D       0.094100
     28 C4          -1.9790    -0.7700     3.5200 c3         1 F1D       0.215100
     29 C5          -0.4580    -0.6200     3.4490 c3         1 F1D      -0.064400
     30 C6           0.0490    -1.2120     2.1300 c3         1 F1D       0.045500
     31 N           -0.6750    -0.5770     1.0150 n          1 F1D      -0.187800
     32 O           -0.6740     0.5820    -1.0090 os         1 F1D      -0.398900
     33 C            0.1170     1.1900    -2.0660 c3         1 F1D       0.268700
     34 H1          -1.9290    -1.6440     1.1050 h1         1 F1D       0.039200
     35 H2          -2.4390    -0.1790     0.0750 h1         1 F1D       0.039200
     36 H3          -2.7030     1.0800     2.3500 hc         1 F1D       0.033700
     37 H4          -3.6500    -0.3400     2.2850 hc         1 F1D       0.033700
     38 H5          -2.8800    -0.0290     7.3480 ha         1 F1D       0.128000
     39 H6          -2.7220    -0.3850     9.7200 h1         1 F1D       0.069700
     40 H7          -4.9560    -1.9280     9.3740 hc         1 F1D       0.047200
     41 H8          -3.6680    -3.0270    10.2140 hc         1 F1D       0.047200
     42 H9          -0.6230     0.3960    17.0580 hc         1 F1D       0.070700
     43 H10         -0.1300     1.2880    15.6500 hc         1 F1D       0.070700
     44 H11         -1.7820     3.2300    15.6220 hc         1 F1D       0.039033
     45 H12         -3.2240     2.8580    15.8560 hc         1 F1D       0.039033
     46 H13         -2.0060     2.5140    17.3110 hc         1 F1D       0.039033
     47 H14         -1.3140    -2.8930    10.6420 hn         1 F1D       0.308800
     48 H15         -1.4290    -3.7350     8.8970 ha         1 F1D       0.111000
     49 H16         -0.8970    -4.4040     6.3650 ha         1 F1D       0.115000
     50 H17         -1.0170    -2.6250     4.7540 ha         1 F1D       0.133000
     51 H18         -2.2390    -1.8190     3.4420 h1         1 F1D       0.025700
     52 H19          0.2910     0.1460     3.6080 hc         1 F1D       0.033700
     53 H20         -0.0860    -1.4260     4.0690 hc         1 F1D       0.033700
     54 H21          1.1240    -1.2620     2.2490 h1         1 F1D       0.039200
     55 H22         -0.1380    -2.2660     1.9640 h1         1 F1D       0.039200
     56 H23          0.7300     2.0090    -1.7110 h1         1 F1D      -0.006967
     57 H24          0.7800     0.6460    -2.7280 h1         1 F1D      -0.006967
     58 H25         -0.3920     1.7100    -2.8690 h1         1 F1D      -0.006967
@<TRIPOS>BOND
     1     1     4 2   
     2     1    31 1   
     3     1    32 1   
     4     2     3 1   
     5     2    31 1   
     6     2    34 1   
     7     2    35 1   
     8     3    28 1   
     9     3    36 1   
    10     3    37 1   
    11     5    27 1   
    12     5    28 1   
    13     6    13 2   
    14     7     8 ar  
    15     7     9 1   
    16     7    24 ar  
    17     8    27 ar  
    18     8    38 1   
    19     9    10 1   
    20     9    22 1   
    21     9    39 1   
    22    10    11 1   
    23    10    40 1   
    24    10    41 1   
    25    11    23 3   
    26    12    20 2   
    27    12    21 1   
    28    12    22 1   
    29    13    14 1   
    30    13    19 1   
    31    14    15 1   
    32    14    42 1   
    33    14    43 1   
    34    15    16 1   
    35    15    18 2   
    36    16    44 1   
    37    16    45 1   
    38    16    46 1   
    39    17    18 1   
    40    17    19 1   
    41    17    21 2   
    42    19    20 1   
    43    22    47 1   
    44    24    25 ar  
    45    24    48 1   
    46    25    26 ar  
    47    25    49 1   
    48    26    27 ar  
    49    26    50 1   
    50    28    29 1   
    51    28    51 1   
    52    29    30 1   
    53    29    52 1   
    54    29    53 1   
    55    30    31 1   
    56    30    54 1   
    57    30    55 1   
    58    32    33 1   
    59    33    56 1   
    60    33    57 1   
    61    33    58 1   
@<TRIPOS>SUBSTRUCTURE
     1 F1D         1 TEMP              0 ****  ****    0 ROOT
