@<TRIPOS>MOLECULE
molecule
   47    48     1     0     0
SMALL
bcc


@<TRIPOS>ATOM
      1 O1           0.0000     0.0000     0.0000 o          1 F1E      -0.549000
      2 C2           1.2080     0.0000     0.0000 c          1 F1E       0.623100
      3 O            1.8800     0.0000     1.1620 os         1 F1E      -0.427900
      4 C1           1.0890     0.0010     2.3800 c3         1 F1E       0.147400
      5 C            2.0220     0.0010     3.5930 c3         1 F1E      -0.096100
      6 C3           1.9610    -0.0080    -1.3050 c3         1 F1E       0.089000
      7 N            1.0090    -0.0130    -2.4180 ns         1 F1E      -0.593900
      8 C4           1.4580    -0.0200    -3.6890 c          1 F1E       0.798100
      9 O2           2.6530    -0.0220    -3.9120 o          1 F1E      -0.669100
     10 N1           0.5820    -0.0260    -4.7130 n          1 F1E      -0.498800
     11 C12         -0.8590    -0.0230    -4.4460 c3         1 F1E       0.091700
     12 C13         -1.3510     1.3990    -4.3610 cc         1 F1E       0.244600
     13 C14         -1.9070     2.1240    -5.3600 cd         1 F1E      -0.282600
     14 N3          -2.1940     3.3360    -4.8310 na         1 F1E       0.127400
     15 C15         -2.8100     4.4580    -5.5430 c3         1 F1E       0.045600
     16 N4          -1.8320     3.3330    -3.5960 nd         1 F1E      -0.196800
     17 N5          -1.3320     2.1890    -3.2820 nc         1 F1E      -0.350000
     18 C5           1.0700    -0.0330    -6.0960 c3         1 F1E       0.176300
     19 C6           1.2370    -1.4570    -6.5610 ca         1 F1E      -0.126300
     20 C7           0.1830    -2.1100    -7.1740 ca         1 F1E      -0.107000
     21 C8           0.3320    -3.4140    -7.6010 ca         1 F1E      -0.149500
     22 C9           1.5420    -4.0700    -7.4160 ca         1 F1E       0.168600
     23 N2           1.6980    -5.3890    -7.8480 nv         1 F1E      -0.992200
     24 C10          2.5990    -3.4110    -6.8010 ca         1 F1E      -0.149500
     25 C11          2.4450    -2.1050    -6.3800 ca         1 F1E      -0.107000
     26 H1           0.4640    -0.8830     2.4050 h1         1 F1E       0.050700
     27 H2           0.4650     0.8860     2.4040 h1         1 F1E       0.050700
     28 H3           2.7370    -0.8070     3.4990 hc         1 F1E       0.048033
     29 H4           1.4400    -0.1360     4.4960 hc         1 F1E       0.048033
     30 H5           2.5490     0.9460     3.6430 hc         1 F1E       0.048033
     31 H6           2.5830    -0.8930    -1.3580 h1         1 F1E       0.081700
     32 H7           2.5850     0.8760    -1.3680 h1         1 F1E       0.081700
     33 H8           0.0260    -0.0650    -2.2350 hn         1 F1E       0.344500
     34 H9          -1.3760    -0.5370    -5.2470 h1         1 F1E       0.066200
     35 H10         -1.0530    -0.5290    -3.5080 h1         1 F1E       0.066200
     36 H11         -1.8810     1.8790    -6.4150 h4         1 F1E       0.180000
     37 H12         -2.3560     4.5590    -6.5220 h1         1 F1E       0.065700
     38 H13         -2.6590     5.3710    -4.9790 h1         1 F1E       0.065700
     39 H14         -3.8720     4.2750    -5.6560 h1         1 F1E       0.065700
     40 H15          0.3560     0.4740    -6.7330 h1         1 F1E       0.062200
     41 H16          2.0240     0.4770    -6.1450 h1         1 F1E       0.062200
     42 H17         -0.7610    -1.5970    -7.3180 ha         1 F1E       0.137500
     43 H18         -0.4930    -3.9250    -8.0810 ha         1 F1E       0.135000
     44 H19          1.9610    -5.5780    -8.7950 hn         1 F1E       0.427300
     45 H20          1.5230    -6.1460    -7.2170 hn         1 F1E       0.427300
     46 H21          3.5450    -3.9190    -6.6570 ha         1 F1E       0.135000
     47 H22          3.2680    -1.5900    -5.9000 ha         1 F1E       0.137500
@<TRIPOS>BOND
     1    23    22 1
     2    22    21 ar
     3    22    24 ar
     4    21    20 ar
     5    24    25 ar
     6    20    19 ar
     7    25    19 ar
     8    19    18 1
     9    18    10 1
    10     9     8 2
    11    10     8 1
    12    10    11 1
    13     8     7 1
    14     1     2 2
    15     4     5 1
    16     4     3 1
    17    11    12 1
    18    13    12 2
    19    13    14 1
    20     2     3 1
    21     2     6 1
    22    12    17 1
    23     7     6 1
    24    14    15 1
    25    14    16 1
    26    17    16 2
    27     4    26 1
    28     4    27 1
    29     5    28 1
    30     5    29 1
    31     5    30 1
    32     6    31 1
    33     6    32 1
    34     7    33 1
    35    11    34 1
    36    11    35 1
    37    13    36 1
    38    15    37 1
    39    15    38 1
    40    15    39 1
    41    18    40 1
    42    18    41 1
    43    20    42 1
    44    21    43 1
    45    23    44 1
    46    23    45 1
    47    24    46 1
    48    25    47 1
@<TRIPOS>SUBSTRUCTURE
     1 F1E         1 TEMP              0 ****  ****    0 ROOT
