@<TRIPOS>MOLECULE
F1G
   29    30     1     0     0
SMALL
bcc


@<TRIPOS>ATOM
      1 F18          0.0000     0.0000     0.0000 f          1 F1G      -0.200300
      2 C15          1.4000     0.0000     0.0000 c3         1 F1G       0.568600
      3 F16          1.8660     0.0000     1.3180 f          1 F1G      -0.200300
      4 F17          1.8650     1.1420    -0.6600 f          1 F1G      -0.200300
      5 C12          1.9020    -1.2300    -0.7110 cc         1 F1G       0.309600
      6 C9           1.7140    -1.5230    -2.1010 cc         1 F1G      -0.283300
      7 C10          2.3520    -2.7560    -2.2990 cd         1 F1G      -0.065400
      8 N14          2.8680    -3.1680    -1.1270 na         1 F1G       0.574400
      9 C19          3.6120    -4.4090    -0.9000 c3         1 F1G       0.009600
     10 N13          2.5740    -2.1970    -0.1610 nd         1 F1G      -0.563800
     11 S11          2.0930    -3.0810    -4.0250 ss         1 F1G      -0.272800
     12 C8           1.1130    -0.9520    -3.2350 cc         1 F1G       0.027000
     13 C6           1.1740    -1.6050    -4.4300 cd         1 F1G      -0.049700
     14 C5           0.6220    -1.1970    -5.7250 c          1 F1G       0.649700
     15 O7           0.0160    -0.1460    -5.8250 o          1 F1G      -0.630100
     16 N4           0.7870    -1.9850    -6.8070 ns         1 F1G      -0.196900
     17 C3           0.2350    -1.5770    -8.1010 c3         1 F1G       0.073000
     18 C2           0.5600    -2.6410    -9.1510 c3         1 F1G       0.082700
     19 S1          -0.1240    -2.1360   -10.7540 sh         1 F1G      -0.382900
     20 H191         4.5000    -4.4170    -1.5210 h1         1 F1G       0.032033
     21 H192         3.9010    -4.4730     0.1420 h1         1 F1G       0.032033
     22 H193         2.9870    -5.2570    -1.1530 h1         1 F1G       0.032033
     23 H8           0.6050     0.0010    -3.1600 ha         1 F1G       0.137000
     24 HN4          1.2850    -2.8490    -6.7250 hn         1 F1G       0.177500
     25 H31          0.6720    -0.6310    -8.3980 h1         1 F1G       0.043700
     26 H32         -0.8390    -1.4670    -8.0180 h1         1 F1G       0.043700
     27 H21          0.1230    -3.5870    -8.8540 h1         1 F1G       0.031700
     28 H22          1.6350    -2.7500    -9.2350 h1         1 F1G       0.031700
     29 HS1          0.1580    -3.0580   -11.6660 hs         1 F1G       0.189800
@<TRIPOS>BOND
     1     1     2 1   
     2     2     3 1   
     3     2     4 1   
     4     2     5 1   
     5     5     6 1   
     6     5    10 2   
     7     6     7 2   
     8     6    12 1   
     9     7     8 1   
    10     7    11 1   
    11     8     9 1   
    12     8    10 1   
    13     9    20 1   
    14     9    21 1   
    15     9    22 1   
    16    11    13 1   
    17    12    13 2   
    18    12    23 1   
    19    13    14 1   
    20    14    15 2   
    21    14    16 1   
    22    16    17 1   
    23    16    24 1   
    24    17    18 1   
    25    17    25 1   
    26    17    26 1   
    27    18    19 1   
    28    18    27 1   
    29    18    28 1   
    30    19    29 1   
@<TRIPOS>SUBSTRUCTURE
     1 F1G         1 TEMP              0 ****  ****    0 ROOT
