@<TRIPOS>MOLECULE
F1H
   44    45     1     0     0
SMALL
bcc


@<TRIPOS>ATOM
      1 C16          0.0000     0.0000     0.0000 ca         1 F1H      -0.091000
      2 C17          1.3820     0.0000     0.0000 ca         1 F1H      -0.101000
      3 C20          0.0010     0.0010     2.3940 ca         1 F1H      -0.091000
      4 C15         -0.6910     0.0010     1.1970 ca         1 F1H      -0.092300
      5 C12         -4.1370    -1.4300     0.9610 c3         1 F1H       0.152300
      6 C13         -4.5870    -2.8850     0.8230 c3         1 F1H      -0.039400
      7 C14         -2.1980     0.0010     1.1980 c3         1 F1H       0.213100
      8 C10         -2.3330    -2.0680     2.4490 c3         1 F1H       0.152300
      9 C9          -2.7300    -3.5430     2.3560 c3         1 F1H      -0.039400
     10 C7          -5.9070    -9.3290     4.1230 c3         1 F1H       0.101700
     11 C5          -5.2660    -7.2480     2.8960 c3         1 F1H      -0.097400
     12 C6          -5.5140    -7.8570     4.2780 c3         1 F1H       0.006600
     13 C1          -4.2360    -3.6470     2.1050 c3         1 F1H       0.014700
     14 O4          -4.8100    -5.3030     4.1530 o          1 F1H      -0.645100
     15 S8          -6.2000   -10.0520     5.7600 sh         1 F1H      -0.402900
     16 N2          -4.6120    -5.0550     1.9580 ns         1 F1H      -0.190900
     17 N11         -2.6880    -1.3840     1.1980 n3         1 F1H      -0.538600
     18 C18          2.0730     0.0000     1.1970 ca         1 F1H      -0.100000
     19 C19          1.3830     0.0020     2.3940 ca         1 F1H      -0.101000
     20 H16         -0.5420     0.0000    -0.9380 ha         1 F1H       0.107000
     21 H17          1.9230    -0.0010    -0.9380 ha         1 F1H       0.102500
     22 H20         -0.5410     0.0020     3.3330 ha         1 F1H       0.107000
     23 H12         -4.3690    -0.8940     0.0480 h1         1 F1H       0.015200
     24 H12A        -4.6530    -0.9710     1.7960 h1         1 F1H       0.015200
     25 H13         -4.0780    -3.3420    -0.0170 hc         1 F1H       0.026450
     26 H13A        -5.6580    -2.9180     0.6660 hc         1 F1H       0.026450
     27 H14         -2.5580     0.5110     2.0830 h1         1 F1H       0.012200
     28 H14A        -2.5590     0.5110     0.3140 h1         1 F1H       0.012200
     29 H10         -1.2650    -1.9920     2.6090 h1         1 F1H       0.015200
     30 H10A        -2.8610    -1.6050     3.2740 h1         1 F1H       0.015200
     31 H9          -2.1950    -4.0090     1.5370 hc         1 F1H       0.026450
     32 H9A         -2.4840    -4.0410     3.2860 hc         1 F1H       0.026450
     33 H7          -5.1060    -9.8660     3.6290 h1         1 F1H       0.026200
     34 H7A         -6.8100    -9.4010     3.5290 h1         1 F1H       0.026200
     35 H5          -6.1690    -7.3200     2.3020 hc         1 F1H       0.026200
     36 H5A         -4.4650    -7.7850     2.4030 hc         1 F1H       0.026200
     37 H6          -6.3150    -7.3200     4.7710 hc         1 F1H       0.045200
     38 H6A         -4.6110    -7.7850     4.8720 hc         1 F1H       0.045200
     39 H1          -4.7710    -3.2100     2.9400 h1         1 F1H       0.057700
     40 HS8         -6.5420   -11.3270     5.6260 hs         1 F1H       0.182800
     41 HN2         -4.6800    -5.4610     1.0460 hn         1 F1H       0.172500
     42 H18          3.1570     0.0000     1.1970 ha         1 F1H       0.102000
     43 H19          1.9250     0.0020     3.3320 ha         1 F1H       0.102500
     44 C3          -4.8800    -5.7990     3.0480 c          1 F1H       0.571100
@<TRIPOS>BOND
     1     1     2 ar  
     2     1     4 ar  
     3     1    20 1   
     4     2    18 ar  
     5     2    21 1   
     6     3     4 ar  
     7     3    19 ar  
     8     3    22 1   
     9     4     7 1   
    10     5     6 1   
    11     5    17 1   
    12     5    23 1   
    13     5    24 1   
    14     6    13 1   
    15     6    25 1   
    16     6    26 1   
    17     7    17 1   
    18     7    27 1   
    19     7    28 1   
    20     8     9 1   
    21     8    17 1   
    22     8    29 1   
    23     8    30 1   
    24     9    13 1   
    25     9    31 1   
    26     9    32 1   
    27    10    12 1   
    28    10    15 1   
    29    10    33 1   
    30    10    34 1   
    31    11    12 1   
    32    11    35 1   
    33    11    36 1   
    34    11    44 1   
    35    12    37 1   
    36    12    38 1   
    37    13    16 1   
    38    13    39 1   
    39    14    44 2   
    40    15    40 1   
    41    16    41 1   
    42    16    44 1   
    43    18    19 ar  
    44    18    42 1   
    45    19    43 1   
@<TRIPOS>SUBSTRUCTURE
     1 F1H         1 TEMP              0 ****  ****    0 ROOT
