@<TRIPOS>MOLECULE
molecule
   44    45     1     0     0
SMALL
bcc


@<TRIPOS>ATOM
      1 C16          0.0000     0.0000     0.0000 ca         1 F1H      -0.117000
      2 C17          1.3820     0.0000     0.0000 ca         1 F1H      -0.129500
      3 C20          0.0010     0.0010     2.3940 ca         1 F1H      -0.117000
      4 C15         -0.6910     0.0010     1.1970 ca         1 F1H      -0.081300
      5 C12         -4.1370    -1.4300     0.9610 c3         1 F1H       0.163800
      6 C13         -4.5870    -2.8850     0.8230 c3         1 F1H      -0.091900
      7 C14         -2.1980     0.0010     1.1980 c3         1 F1H       0.210100
      8 C10         -2.3330    -2.0680     2.4490 c3         1 F1H       0.163800
      9 C9          -2.7300    -3.5430     2.3560 c3         1 F1H      -0.091900
     10 C7          -5.9070    -9.3290     4.1230 c3         1 F1H       0.037700
     11 C5          -5.2660    -7.2480     2.8960 c3         1 F1H      -0.157400
     12 C6          -5.5140    -7.8570     4.2780 c3         1 F1H      -0.050400
     13 C1          -4.2360    -3.6470     2.1050 c3         1 F1H       0.113700
     14 O4          -4.8100    -5.3030     4.1530 o          1 F1H      -0.607100
     15 S8          -6.2000   -10.0520     5.7600 sh         1 F1H      -0.419900
     16 N2          -4.6120    -5.0550     1.9580 ns         1 F1H      -0.582900
     17 N11         -2.6880    -1.3840     1.1980 n3         1 F1H      -0.728600
     18 C18          2.0730     0.0000     1.1970 ca         1 F1H      -0.127000
     19 C19          1.3830     0.0020     2.3940 ca         1 F1H      -0.129500
     20 H16         -0.5420     0.0000    -0.9380 ha         1 F1H       0.131000
     21 H17          1.9230    -0.0010    -0.9380 ha         1 F1H       0.129500
     22 H20         -0.5410     0.0020     3.3330 ha         1 F1H       0.131000
     23 H12         -4.3690    -0.8940     0.0480 h1         1 F1H       0.039450
     24 H12A        -4.6530    -0.9710     1.7960 h1         1 F1H       0.039450
     25 H13         -4.0780    -3.3420    -0.0170 hc         1 F1H       0.055450
     26 H13A        -5.6580    -2.9180     0.6660 hc         1 F1H       0.055450
     27 H14         -2.5580     0.5110     2.0830 h1         1 F1H       0.039700
     28 H14A        -2.5590     0.5110     0.3140 h1         1 F1H       0.039700
     29 H10         -1.2650    -1.9920     2.6090 h1         1 F1H       0.039450
     30 H10A        -2.8610    -1.6050     3.2740 h1         1 F1H       0.039450
     31 H9          -2.1950    -4.0090     1.5370 hc         1 F1H       0.055450
     32 H9A         -2.4840    -4.0410     3.2860 hc         1 F1H       0.055450
     33 H7          -5.1060    -9.8660     3.6290 h1         1 F1H       0.052200
     34 H7A         -6.8100    -9.4010     3.5290 h1         1 F1H       0.052200
     35 H5          -6.1690    -7.3200     2.3020 hc         1 F1H       0.059200
     36 H5A         -4.4650    -7.7850     2.4030 hc         1 F1H       0.059200
     37 H6          -6.3150    -7.3200     4.7710 hc         1 F1H       0.074200
     38 H6A         -4.6110    -7.7850     4.8720 hc         1 F1H       0.074200
     39 H1          -4.7710    -3.2100     2.9400 h1         1 F1H       0.078700
     40 HS8         -6.5420   -11.3270     5.6260 hs         1 F1H       0.214800
     41 HN2         -4.6800    -5.4610     1.0460 hn         1 F1H       0.312500
     42 H18          3.1570     0.0000     1.1970 ha         1 F1H       0.128000
     43 H19          1.9250     0.0020     3.3320 ha         1 F1H       0.129500
     44 C3          -4.8800    -5.7990     3.0480 c          1 F1H       0.657100
@<TRIPOS>BOND
     1     1     2 ar
     2     1     4 ar
     3     2    18 ar
     4     3     4 ar
     5     3    19 ar
     6     4     7 1
     7     5     6 1
     8     5    17 1
     9     6    13 1
    10     7    17 1
    11     8     9 1
    12     8    17 1
    13     9    13 1
    14    10    12 1
    15    10    15 1
    16    11    12 1
    17    11    44 1
    18    44    14 2
    19    44    16 1
    20    13    16 1
    21    18    19 ar
    22     1    20 1
    23     2    21 1
    24     3    22 1
    25     5    23 1
    26     5    24 1
    27     6    25 1
    28     6    26 1
    29     7    27 1
    30     7    28 1
    31     8    29 1
    32     8    30 1
    33     9    31 1
    34     9    32 1
    35    10    33 1
    36    10    34 1
    37    11    35 1
    38    11    36 1
    39    12    37 1
    40    12    38 1
    41    13    39 1
    42    15    40 1
    43    16    41 1
    44    18    42 1
    45    19    43 1
@<TRIPOS>SUBSTRUCTURE
     1 F1H         1 TEMP              0 ****  ****    0 ROOT
