@<TRIPOS>MOLECULE
molecule
   52    53     1     0     0
SMALL
bcc


@<TRIPOS>ATOM
      1 C28          0.0000     0.0000     0.0000 c3         1 F1I       0.128200
      2 C27          5.9890     0.0100     3.9050 c3         1 F1I       0.128200
      3 O25          1.4290     0.0000     0.0000 os         1 F1I      -0.323400
      4 C16          4.0550    -0.0000     2.5230 ca         1 F1I       0.183100
      5 C17          3.2950     0.0000     3.6840 ca         1 F1I      -0.258000
      6 C20          2.0440    -0.0010     1.2120 ca         1 F1I       0.183100
      7 C15          3.4300    -0.0010     1.2860 ca         1 F1I      -0.142300
      8 C12          5.5110    -1.4310    -1.4690 c3         1 F1I       0.167300
      9 C13          5.8720    -2.8880    -1.7700 c3         1 F1I      -0.092400
     10 C14          4.2520    -0.0000     0.0230 c3         1 F1I       0.228100
     11 C10          3.2790    -2.0690    -0.7730 c3         1 F1I       0.167300
     12 C9           3.5740    -3.5440    -1.0530 c3         1 F1I      -0.092400
     13 C7           3.8320    -9.3320    -4.6770 c3         1 F1I       0.038700
     14 C5           4.5090    -7.2510    -3.4710 c3         1 F1I      -0.157400
     15 C6           3.4880    -7.8610    -4.4330 c3         1 F1I      -0.050400
     16 C1           4.6080    -3.6490    -2.1780 c3         1 F1I       0.114700
     17 O4           3.2070    -5.3060    -3.7760 o          1 F1I      -0.607100
     18 S8           2.6220   -10.0560    -5.8170 sh         1 F1I      -0.420900
     19 N2           4.9380    -5.0570    -2.4100 ns         1 F1I      -0.582900
     20 N11          4.5200    -1.3860    -0.3870 n3         1 F1I      -0.726600
     21 C18          1.9150     0.0000     3.6070 ca         1 F1I      -0.052000
     22 C19          1.2890     0.0000     2.3750 ca         1 F1I      -0.258000
     23 H28         -0.3610    -0.0320    -1.0210 h1         1 F1I       0.042367
     24 H28A        -0.3610     0.9000     0.4830 h1         1 F1I       0.042367
     25 H28B        -0.3610    -0.8680     0.5380 h1         1 F1I       0.042367
     26 H27          5.6650    -0.8710     4.4470 h1         1 F1I       0.042367
     27 H27A         7.0690     0.0060     3.8230 h1         1 F1I       0.042367
     28 H27B         5.6700     0.8980     4.4370 h1         1 F1I       0.042367
     29 H17          3.7830     0.0000     4.6510 ha         1 F1I       0.135000
     30 H12          5.0930    -0.9730    -2.3580 h1         1 F1I       0.039700
     31 H12A         6.4010    -0.8950    -1.1650 h1         1 F1I       0.039700
     32 H13          6.5900    -2.9210    -2.5810 hc         1 F1I       0.052700
     33 H13A         6.2980    -3.3440    -0.8850 hc         1 F1I       0.052700
     34 H14          5.1900     0.5110     0.2040 h1         1 F1I       0.047700
     35 H14A         3.7080     0.5100    -0.7620 h1         1 F1I       0.047700
     36 H10          2.5600    -1.9930     0.0340 h1         1 F1I       0.039700
     37 H10A         2.8770    -1.6070    -1.6660 h1         1 F1I       0.039700
     38 H9           2.6610    -4.0430    -1.3550 hc         1 F1I       0.052700
     39 H9A          3.9670    -4.0090    -0.1570 hc         1 F1I       0.052700
     40 H7           4.8230    -9.4040    -5.1080 h1         1 F1I       0.051700
     41 H7A          3.8080    -9.8690    -3.7360 h1         1 F1I       0.051700
     42 H5           4.4850    -7.7870    -2.5300 hc         1 F1I       0.058200
     43 H5A          5.5000    -7.3230    -3.9020 hc         1 F1I       0.058200
     44 H6           2.4970    -7.7890    -4.0010 hc         1 F1I       0.073700
     45 H6A          3.5120    -7.3240    -5.3730 hc         1 F1I       0.073700
     46 H1           4.2010    -3.2130    -3.0820 h1         1 F1I       0.078700
     47 HS8          2.9220   -11.3310    -6.0290 hs         1 F1I       0.213800
     48 HN2          5.7470    -5.4590    -1.9810 hn         1 F1I       0.311500
     49 H18          1.3230     0.0010     4.5140 ha         1 F1I       0.130000
     50 H19          0.2070     0.0000     2.3180 ha         1 F1I       0.135000
     51 O26          5.4120     0.0050     2.5980 os         1 F1I      -0.323400
     52 C3           4.1700    -5.8020    -3.2310 c          1 F1I       0.657100
@<TRIPOS>BOND
     1     1     3 1
     2     2    51 1
     3     3     6 1
     4     4     5 ar
     5     4     7 ar
     6     4    51 1
     7     5    21 ar
     8     6     7 ar
     9     6    22 ar
    10     7    10 1
    11     8     9 1
    12     8    20 1
    13     9    16 1
    14    10    20 1
    15    11    12 1
    16    11    20 1
    17    12    16 1
    18    13    15 1
    19    13    18 1
    20    14    15 1
    21    14    52 1
    22    52    17 2
    23    52    19 1
    24    16    19 1
    25    21    22 ar
    26     1    23 1
    27     1    24 1
    28     1    25 1
    29     2    26 1
    30     2    27 1
    31     2    28 1
    32     5    29 1
    33     8    30 1
    34     8    31 1
    35     9    32 1
    36     9    33 1
    37    10    34 1
    38    10    35 1
    39    11    36 1
    40    11    37 1
    41    12    38 1
    42    12    39 1
    43    13    40 1
    44    13    41 1
    45    14    42 1
    46    14    43 1
    47    15    44 1
    48    15    45 1
    49    16    46 1
    50    18    47 1
    51    19    48 1
    52    21    49 1
    53    22    50 1
@<TRIPOS>SUBSTRUCTURE
     1 F1I         1 TEMP              0 ****  ****    0 ROOT
