@<TRIPOS>MOLECULE
F1I
   52    53     1     0     0
SMALL
bcc


@<TRIPOS>ATOM
      1 C28          0.0000     0.0000     0.0000 c3         1 F1I       0.241700
      2 C27          5.9890     0.0100     3.9050 c3         1 F1I       0.241700
      3 O25          1.4290     0.0000     0.0000 os         1 F1I      -0.303900
      4 C16          4.0550    -0.0000     2.5230 ca         1 F1I       0.198100
      5 C17          3.2950     0.0000     3.6840 ca         1 F1I      -0.253500
      6 C20          2.0440    -0.0010     1.2120 ca         1 F1I       0.198100
      7 C15          3.4300    -0.0010     1.2860 ca         1 F1I      -0.171300
      8 C12          5.5110    -1.4310    -1.4690 c3         1 F1I       0.152800
      9 C13          5.8720    -2.8880    -1.7700 c3         1 F1I      -0.039400
     10 C14          4.2520    -0.0000     0.0230 c3         1 F1I       0.229100
     11 C10          3.2790    -2.0690    -0.7730 c3         1 F1I       0.152800
     12 C9           3.5740    -3.5440    -1.0530 c3         1 F1I      -0.039400
     13 C7           3.8320    -9.3320    -4.6770 c3         1 F1I       0.101700
     14 C5           4.5090    -7.2510    -3.4710 c3         1 F1I      -0.098400
     15 C6           3.4880    -7.8610    -4.4330 c3         1 F1I       0.005600
     16 C1           4.6080    -3.6490    -2.1780 c3         1 F1I       0.014700
     17 O4           3.2070    -5.3060    -3.7760 o          1 F1I      -0.645100
     18 S8           2.6220   -10.0560    -5.8170 sh         1 F1I      -0.402900
     19 N2           4.9380    -5.0570    -2.4100 ns         1 F1I      -0.191900
     20 N11          4.5200    -1.3860    -0.3870 n3         1 F1I      -0.536600
     21 C18          1.9150     0.0000     3.6070 ca         1 F1I      -0.012000
     22 C19          1.2890     0.0000     2.3750 ca         1 F1I      -0.253500
     23 H28         -0.3610    -0.0320    -1.0210 h1         1 F1I      -0.001300
     24 H28A        -0.3610     0.9000     0.4830 h1         1 F1I      -0.001300
     25 H28B        -0.3610    -0.8680     0.5380 h1         1 F1I      -0.001300
     26 H27          5.6650    -0.8710     4.4470 h1         1 F1I      -0.001300
     27 H27A         7.0690     0.0060     3.8230 h1         1 F1I      -0.001300
     28 H27B         5.6700     0.8980     4.4370 h1         1 F1I      -0.001300
     29 H17          3.7830     0.0000     4.6510 ha         1 F1I       0.123000
     30 H12          5.0930    -0.9730    -2.3580 h1         1 F1I       0.016700
     31 H12A         6.4010    -0.8950    -1.1650 h1         1 F1I       0.016700
     32 H13          6.5900    -2.9210    -2.5810 hc         1 F1I       0.024450
     33 H13A         6.2980    -3.3440    -0.8850 hc         1 F1I       0.024450
     34 H14          5.1900     0.5110     0.2040 h1         1 F1I       0.018700
     35 H14A         3.7080     0.5100    -0.7620 h1         1 F1I       0.018700
     36 H10          2.5600    -1.9930     0.0340 h1         1 F1I       0.016700
     37 H10A         2.8770    -1.6070    -1.6660 h1         1 F1I       0.016700
     38 H9           2.6610    -4.0430    -1.3550 hc         1 F1I       0.024450
     39 H9A          3.9670    -4.0090    -0.1570 hc         1 F1I       0.024450
     40 H7           4.8230    -9.4040    -5.1080 h1         1 F1I       0.025700
     41 H7A          3.8080    -9.8690    -3.7360 h1         1 F1I       0.025700
     42 H5           4.4850    -7.7870    -2.5300 hc         1 F1I       0.026200
     43 H5A          5.5000    -7.3230    -3.9020 hc         1 F1I       0.026200
     44 H6           2.4970    -7.7890    -4.0010 hc         1 F1I       0.045200
     45 H6A          3.5120    -7.3240    -5.3730 hc         1 F1I       0.045200
     46 H1           4.2010    -3.2130    -3.0820 h1         1 F1I       0.057700
     47 HS8          2.9220   -11.3310    -6.0290 hs         1 F1I       0.182800
     48 HN2          5.7470    -5.4590    -1.9810 hn         1 F1I       0.171500
     49 H18          1.3230     0.0010     4.5140 ha         1 F1I       0.098000
     50 H19          0.2070     0.0000     2.3180 ha         1 F1I       0.123000
     51 O26          5.4120     0.0050     2.5980 os         1 F1I      -0.303900
     52 C3           4.1700    -5.8020    -3.2310 c          1 F1I       0.571100
@<TRIPOS>BOND
     1     1     3 1   
     2     1    23 1   
     3     1    24 1   
     4     1    25 1   
     5     2    26 1   
     6     2    27 1   
     7     2    28 1   
     8     2    51 1   
     9     3     6 1   
    10     4     5 ar  
    11     4     7 ar  
    12     4    51 1   
    13     5    21 ar  
    14     5    29 1   
    15     6     7 ar  
    16     6    22 ar  
    17     7    10 1   
    18     8     9 1   
    19     8    20 1   
    20     8    30 1   
    21     8    31 1   
    22     9    16 1   
    23     9    32 1   
    24     9    33 1   
    25    10    20 1   
    26    10    34 1   
    27    10    35 1   
    28    11    12 1   
    29    11    20 1   
    30    11    36 1   
    31    11    37 1   
    32    12    16 1   
    33    12    38 1   
    34    12    39 1   
    35    13    15 1   
    36    13    18 1   
    37    13    40 1   
    38    13    41 1   
    39    14    15 1   
    40    14    42 1   
    41    14    43 1   
    42    14    52 1   
    43    15    44 1   
    44    15    45 1   
    45    16    19 1   
    46    16    46 1   
    47    17    52 2   
    48    18    47 1   
    49    19    48 1   
    50    19    52 1   
    51    21    22 ar  
    52    21    49 1   
    53    22    50 1   
@<TRIPOS>SUBSTRUCTURE
     1 F1I         1 TEMP              0 ****  ****    0 ROOT
