@<TRIPOS>MOLECULE
molecule
   40    41     1     0     0
SMALL
bcc


@<TRIPOS>ATOM
      1 C15          0.0000     0.0000     0.0000 c          1 F1J       0.654100
      2 C12          7.7240    -2.6660    -0.7590 ca         1 F1J      -0.168500
      3 C13          6.3550    -2.7980    -0.6220 ca         1 F1J      -0.092000
      4 C11          8.2480    -2.0060    -1.8580 ca         1 F1J       0.134900
      5 C10          7.4000    -1.4790    -2.8170 ca         1 F1J      -0.168500
      6 C9           6.0310    -1.6130    -2.6780 ca         1 F1J      -0.092000
      7 C8           5.5090    -2.2720    -1.5800 ca         1 F1J      -0.098300
      8 C7           4.0170    -2.4180    -1.4300 c3         1 F1J       0.211100
      9 C4           2.0170    -1.2520    -0.7190 c3         1 F1J       0.173800
     10 C5           1.5070     0.0000     0.0000 c3         1 F1J       0.098500
     11 C2           3.9760    -1.2690     0.7030 c3         1 F1J       0.155800
     12 C1           3.4660    -0.0180     1.4220 c3         1 F1J       0.159800
     13 O17         -0.6070    -0.3560     0.9870 o          1 F1J      -0.573100
     14 N16         -0.6740     0.4030    -1.0960 ns         1 F1J      -0.594900
     15 C18         -2.1380     0.4040    -1.0960 c3         1 F1J       0.129000
     16 C19         -2.6480     0.9010    -2.4510 c3         1 F1J       0.015700
     17 S20         -4.4630     0.9020    -2.4510 sh         1 F1J      -0.402900
     18 N6           1.9960     0.0000     1.3850 n7         1 F1J      -0.794200
     19 N3           3.4860    -1.2690    -0.6830 n3         1 F1J      -0.731600
     20 H12          8.3860    -3.0790    -0.0080 ha         1 F1J       0.146000
     21 H13          5.9450    -3.3140     0.2380 ha         1 F1J       0.138000
     22 H10          7.8090    -0.9620    -3.6770 ha         1 F1J       0.146000
     23 H9           5.3670    -1.2000    -3.4280 ha         1 F1J       0.138000
     24 H7           3.7960    -3.3320    -0.8920 h1         1 F1J       0.043200
     25 H7A          3.5570    -2.4550    -2.4100 h1         1 F1J       0.043200
     26 H4           1.6340    -2.1340    -0.2210 h1         1 F1J       0.047700
     27 H4A          1.6820    -1.2370    -1.7490 h1         1 F1J       0.047700
     28 H5           1.8730     0.8820    -0.5110 h1         1 F1J       0.038700
     29 H2           5.0590    -1.2680     0.7020 h1         1 F1J       0.048200
     30 H2A          3.6110    -2.1520     1.2140 h1         1 F1J       0.048200
     31 H1           3.8000    -0.0320     2.4520 h1         1 F1J       0.042700
     32 H1A          3.8490     0.8650     0.9240 h1         1 F1J       0.042700
     33 HN16        -0.1740     0.7300    -1.8990 hn         1 F1J       0.311500
     34 H18         -2.5000    -0.6020    -0.9210 h1         1 F1J       0.069700
     35 H18A        -2.4990     1.0590    -0.3120 h1         1 F1J       0.069700
     36 H19         -2.2860     1.9060    -2.6260 h1         1 F1J       0.058700
     37 H19A        -2.2880     0.2450    -3.2340 h1         1 F1J       0.058700
     38 HS20        -4.9040     1.3320    -3.6270 hs         1 F1J       0.220800
     39 HN6          1.6610     0.8160     1.8580 hn         1 F1J       0.366800
     40 F14          9.5860    -1.8770    -1.9940 f          1 F1J      -0.140900
@<TRIPOS>BOND
     1     1    10 1
     2     1    13 2
     3     1    14 1
     4     2     3 ar
     5     2     4 ar
     6     3     7 ar
     7     4     5 ar
     8     4    40 1
     9     5     6 ar
    10     6     7 ar
    11     7     8 1
    12     8    19 1
    13     9    10 1
    14     9    19 1
    15    10    18 1
    16    11    12 1
    17    11    19 1
    18    12    18 1
    19    14    15 1
    20    15    16 1
    21    16    17 1
    22     2    20 1
    23     3    21 1
    24     5    22 1
    25     6    23 1
    26     8    24 1
    27     8    25 1
    28     9    26 1
    29     9    27 1
    30    10    28 1
    31    11    29 1
    32    11    30 1
    33    12    31 1
    34    12    32 1
    35    14    33 1
    36    15    34 1
    37    15    35 1
    38    16    36 1
    39    16    37 1
    40    17    38 1
    41    18    39 1
@<TRIPOS>SUBSTRUCTURE
     1 F1J         1 TEMP              0 ****  ****    0 ROOT
