@<TRIPOS>MOLECULE
F1J
   40    41     1     0     0
SMALL
bcc


@<TRIPOS>ATOM
      1 C15          0.0000     0.0000     0.0000 c          1 F1J       0.568100
      2 C12          7.7240    -2.6660    -0.7590 ca         1 F1J      -0.133000
      3 C13          6.3550    -2.7980    -0.6220 ca         1 F1J      -0.065000
      4 C11          8.2480    -2.0060    -1.8580 ca         1 F1J       0.105900
      5 C10          7.4000    -1.4790    -2.8170 ca         1 F1J      -0.133000
      6 C9           6.0310    -1.6130    -2.6780 ca         1 F1J      -0.065000
      7 C8           5.5090    -2.2720    -1.5800 ca         1 F1J      -0.105300
      8 C7           4.0170    -2.4180    -1.4300 c3         1 F1J       0.215100
      9 C4           2.0170    -1.2520    -0.7190 c3         1 F1J       0.162800
     10 C5           1.5070     0.0000     0.0000 c3         1 F1J       0.050500
     11 C2           3.9760    -1.2690     0.7030 c3         1 F1J       0.135800
     12 C1           3.4660    -0.0180     1.4220 c3         1 F1J       0.144800
     13 O17         -0.6070    -0.3560     0.9870 o          1 F1J      -0.613100
     14 N16         -0.6740     0.4030    -1.0960 ns         1 F1J      -0.210900
     15 C18         -2.1380     0.4040    -1.0960 c3         1 F1J       0.073000
     16 C19         -2.6480     0.9010    -2.4510 c3         1 F1J       0.083700
     17 S20         -4.4630     0.9020    -2.4510 sh         1 F1J      -0.384900
     18 N6           1.9960     0.0000     1.3850 n7         1 F1J      -0.548200
     19 N3           3.4860    -1.2690    -0.6830 n3         1 F1J      -0.542600
     20 H12          8.3860    -3.0790    -0.0080 ha         1 F1J       0.119000
     21 H13          5.9450    -3.3140     0.2380 ha         1 F1J       0.111000
     22 H10          7.8090    -0.9620    -3.6770 ha         1 F1J       0.119000
     23 H9           5.3670    -1.2000    -3.4280 ha         1 F1J       0.111000
     24 H7           3.7960    -3.3320    -0.8920 h1         1 F1J       0.014200
     25 H7A          3.5570    -2.4550    -2.4100 h1         1 F1J       0.014200
     26 H4           1.6340    -2.1340    -0.2210 h1         1 F1J       0.018700
     27 H4A          1.6820    -1.2370    -1.7490 h1         1 F1J       0.018700
     28 H5           1.8730     0.8820    -0.5110 h1         1 F1J       0.017700
     29 H2           5.0590    -1.2680     0.7020 h1         1 F1J       0.024200
     30 H2A          3.6110    -2.1520     1.2140 h1         1 F1J       0.024200
     31 H1           3.8000    -0.0320     2.4520 h1         1 F1J       0.012700
     32 H1A          3.8490     0.8650     0.9240 h1         1 F1J       0.012700
     33 HN16        -0.1740     0.7300    -1.8990 hn         1 F1J       0.173500
     34 H18         -2.5000    -0.6020    -0.9210 h1         1 F1J       0.041700
     35 H18A        -2.4990     1.0590    -0.3120 h1         1 F1J       0.041700
     36 H19         -2.2860     1.9060    -2.6260 h1         1 F1J       0.030700
     37 H19A        -2.2880     0.2450    -3.2340 h1         1 F1J       0.030700
     38 HS20        -4.9040     1.3320    -3.6270 hs         1 F1J       0.188800
     39 HN6          1.6610     0.8160     1.8580 hn         1 F1J       0.262800
     40 F14          9.5860    -1.8770    -1.9940 f          1 F1J      -0.128900
@<TRIPOS>BOND
     1     1    10 1   
     2     1    13 2   
     3     1    14 1   
     4     2     3 ar  
     5     2     4 ar  
     6     2    20 1   
     7     3     7 ar  
     8     3    21 1   
     9     4     5 ar  
    10     4    40 1   
    11     5     6 ar  
    12     5    22 1   
    13     6     7 ar  
    14     6    23 1   
    15     7     8 1   
    16     8    19 1   
    17     8    24 1   
    18     8    25 1   
    19     9    10 1   
    20     9    19 1   
    21     9    26 1   
    22     9    27 1   
    23    10    18 1   
    24    10    28 1   
    25    11    12 1   
    26    11    19 1   
    27    11    29 1   
    28    11    30 1   
    29    12    18 1   
    30    12    31 1   
    31    12    32 1   
    32    14    15 1   
    33    14    33 1   
    34    15    16 1   
    35    15    34 1   
    36    15    35 1   
    37    16    17 1   
    38    16    36 1   
    39    16    37 1   
    40    17    38 1   
    41    18    39 1   
@<TRIPOS>SUBSTRUCTURE
     1 F1J         1 TEMP              0 ****  ****    0 ROOT
