@<TRIPOS>MOLECULE
F1K
   43    44     1     0     0
SMALL
bcc


@<TRIPOS>ATOM
      1 C24          0.0000     0.0000     0.0000 ca         1 F1K      -0.064500
      2 C23          1.3820     0.0000     0.0000 ca         1 F1K      -0.133000
      3 C22          2.0740     0.0000     1.1990 ca         1 F1K       0.104900
      4 C20         -0.0010     0.0030     2.3950 ca         1 F1K      -0.064500
      5 C12         -9.8960    -2.6010     4.8190 c3         1 F1K       0.109700
      6 C11         -8.3810    -2.5510     4.6120 c3         1 F1K      -0.021400
      7 C10         -8.0590    -2.7940     3.1370 c3         1 F1K       0.051000
      8 C7          -6.0880    -2.9350     1.7100 c          1 F1K       0.566100
      9 C4          -4.1390    -1.4270     1.4340 c3         1 F1K       0.162800
     10 C5          -4.5960    -2.8860     1.5070 c3         1 F1K       0.051500
     11 C2          -2.3420    -2.0650    -0.0570 c3         1 F1K       0.135800
     12 C1          -2.8000    -3.5230     0.0150 c3         1 F1K       0.144800
     13 F25          3.4250     0.0000     1.2000 f          1 F1K      -0.128900
     14 C21          1.3810     0.0020     2.3970 ca         1 F1K      -0.133000
     15 C19         -0.6910     0.0010     1.1980 ca         1 F1K      -0.105300
     16 C18         -2.1990     0.0030     1.1970 c3         1 F1K       0.216100
     17 N3          -2.6880    -1.3820     1.1970 n3         1 F1K      -0.542600
     18 N6          -4.2490    -3.5670     0.2520 n7         1 F1K      -0.548200
     19 O9          -6.8230    -3.1440     0.7670 o          1 F1K      -0.621100
     20 N8          -6.6080    -2.7460     2.9400 ns         1 F1K      -0.204900
     21 S13        -10.2780    -2.3130     6.5690 sh         1 F1K      -0.409900
     22 H24         -0.5410    -0.0020    -0.9380 ha         1 F1K       0.111500
     23 H23          1.9240    -0.0010    -0.9380 ha         1 F1K       0.119000
     24 H20         -0.5440     0.0040     3.3330 ha         1 F1K       0.111500
     25 H12        -10.2680    -3.5740     4.5230 h1         1 F1K       0.033700
     26 H12A       -10.3670    -1.8350     4.2150 h1         1 F1K       0.033700
     27 H11         -7.9090    -3.3170     5.2160 hc         1 F1K       0.031700
     28 H11A        -8.0080    -1.5780     4.9080 hc         1 F1K       0.031700
     29 H10         -8.5310    -2.0290     2.5330 h1         1 F1K       0.027700
     30 H10A        -8.4320    -3.7680     2.8410 h1         1 F1K       0.027700
     31 H4          -4.6520    -0.9280     0.6200 h1         1 F1K       0.018700
     32 H4A         -4.3660    -0.9310     2.3690 h1         1 F1K       0.018700
     33 H5          -4.0970    -3.3780     2.3330 h1         1 F1K       0.018700
     34 H2          -2.8390    -1.5720    -0.8850 h1         1 F1K       0.023700
     35 H2A         -1.2690    -2.0310    -0.2010 h1         1 F1K       0.023700
     36 H1          -2.5730    -4.0190    -0.9210 h1         1 F1K       0.012700
     37 H1A         -2.2870    -4.0220     0.8280 h1         1 F1K       0.012700
     38 H21          1.9210     0.0020     3.3360 ha         1 F1K       0.119000
     39 H18         -2.5590     0.5130     0.3110 h1         1 F1K       0.014200
     40 H18A        -2.5600     0.5140     2.0800 h1         1 F1K       0.014200
     41 HN6         -4.5510    -4.5210     0.2950 hn         1 F1K       0.261800
     42 HN8         -6.0010    -2.6010     3.7230 hn         1 F1K       0.177500
     43 HS13       -11.5880    -2.4140     6.7580 hs         1 F1K       0.191800
@<TRIPOS>BOND
     1     1     2 ar  
     2     1    15 ar  
     3     1    22 1   
     4     2     3 ar  
     5     2    23 1   
     6     3    13 1   
     7     3    14 ar  
     8     4    14 ar  
     9     4    15 ar  
    10     4    24 1   
    11     5     6 1   
    12     5    21 1   
    13     5    25 1   
    14     5    26 1   
    15     6     7 1   
    16     6    27 1   
    17     6    28 1   
    18     7    20 1   
    19     7    29 1   
    20     7    30 1   
    21     8    10 1   
    22     8    19 2   
    23     8    20 1   
    24     9    10 1   
    25     9    17 1   
    26     9    31 1   
    27     9    32 1   
    28    10    18 1   
    29    10    33 1   
    30    11    12 1   
    31    11    17 1   
    32    11    34 1   
    33    11    35 1   
    34    12    18 1   
    35    12    36 1   
    36    12    37 1   
    37    14    38 1   
    38    15    16 1   
    39    16    17 1   
    40    16    39 1   
    41    16    40 1   
    42    18    41 1   
    43    20    42 1   
    44    21    43 1   
@<TRIPOS>SUBSTRUCTURE
     1 F1K         1 TEMP              0 ****  ****    0 ROOT
