@<TRIPOS>MOLECULE
molecule
   52    53     1     0     0
SMALL
bcc


@<TRIPOS>ATOM
      1 C28          0.0000     0.0000     0.0000 c3         1 F1L       0.123700
      2 C26          4.5330     1.2730    -0.3950 c3         1 F1L       0.145700
      3 C24          3.4360    -0.0000     1.2870 ca         1 F1L       0.116100
      4 C23          2.0460     0.0000     1.2120 ca         1 F1L       0.123100
      5 C22          1.2930     0.0000     2.3750 ca         1 F1L      -0.191000
      6 C20          3.3040     0.0010     3.6800 ca         1 F1L      -0.131000
      7 C12          9.1960     9.7100     4.0230 c3         1 F1L       0.037700
      8 C11          8.7810     8.2900     4.4160 c3         1 F1L      -0.050400
      9 C10          8.6040     7.4430     3.1540 c3         1 F1L      -0.157400
     10 C8           8.1960     6.0440     3.5400 c          1 F1L       0.657100
     11 C4           7.5270     1.3720     2.2270 c3         1 F1L       0.162800
     12 C5           7.9970     2.7810     1.8570 c3         1 F1L      -0.092400
     13 C6           7.5850     3.7580     2.9620 c3         1 F1L       0.113700
     14 C2           5.6510     2.2640     3.4760 c3         1 F1L       0.162800
     15 C1           6.0660     3.7000     3.1430 c3         1 F1L      -0.092400
     16 C21          1.9220     0.0000     3.6070 ca         1 F1L       0.010100
     17 O27          1.4290     0.0000     0.0000 os         1 F1L      -0.311900
     18 C19          4.0600     0.0060     2.5230 ca         1 F1L      -0.068300
     19 C18          5.5650     0.0060     2.6080 c3         1 F1L       0.213100
     20 N3           6.0670     1.3690     2.3880 n3         1 F1L      -0.733600
     21 O9           8.0610     5.7540     4.7100 o          1 F1L      -0.606100
     22 S13          9.4060    10.7130     5.5190 sh         1 F1L      -0.418900
     23 H28         -0.3610    -0.8910     0.4990 h1         1 F1L       0.044033
     24 H28A        -0.3610     0.8780     0.5230 h1         1 F1L       0.044033
     25 H28B        -0.3610     0.0140    -1.0210 h1         1 F1L       0.044033
     26 H26          4.0160     1.4210    -1.3350 h1         1 F1L       0.036367
     27 H26A         5.6030     1.3140    -0.5610 h1         1 F1L       0.036367
     28 H26B         4.2460     2.0520     0.3010 h1         1 F1L       0.036367
     29 H22          0.2110     0.0000     2.3190 ha         1 F1L       0.151000
     30 H20          3.7940     0.0040     4.6460 ha         1 F1L       0.147000
     31 H12          8.4290    10.1500     3.3980 h1         1 F1L       0.052200
     32 H12A        10.1310     9.6750     3.4770 h1         1 F1L       0.052200
     33 H11          9.5480     7.8490     5.0410 hc         1 F1L       0.074700
     34 H11A         7.8460     8.3240     4.9610 hc         1 F1L       0.074700
     35 H10          7.8360     7.8830     2.5290 hc         1 F1L       0.059200
     36 H10A         9.5390     7.4080     2.6080 hc         1 F1L       0.059200
     37 H4           7.8040     0.6820     1.4390 h1         1 F1L       0.041450
     38 H4A          7.9920     1.0710     3.1580 h1         1 F1L       0.041450
     39 H5           9.0760     2.7860     1.7550 hc         1 F1L       0.054700
     40 H5A          7.5390     3.0800     0.9220 hc         1 F1L       0.054700
     41 H6           8.0700     3.4780     3.8890 h1         1 F1L       0.079700
     42 H2           6.1300     1.9560     4.3980 h1         1 F1L       0.041450
     43 H2A          4.5750     2.2180     3.5880 h1         1 F1L       0.041450
     44 H1           5.5810     4.0120     2.2260 hc         1 F1L       0.054700
     45 H1A          5.7750     4.3560     3.9540 hc         1 F1L       0.054700
     46 H18          5.8720    -0.3390     3.5880 h1         1 F1L       0.050700
     47 H18A         5.9690    -0.6550     1.8500 h1         1 F1L       0.050700
     48 HN7          8.1260     5.3470     1.6230 hn         1 F1L       0.312500
     49 HS13         9.7670    11.9440     5.1780 hs         1 F1L       0.214800
     50 O25          4.1780     0.0010     0.1480 os         1 F1L      -0.340900
     51 Br29         0.8930     0.0000     5.1930 br         1 F1L      -0.092100
     52 N7           7.9810     5.1170     2.5860 ns         1 F1L      -0.583900
@<TRIPOS>BOND
     1     1    17 1
     2     2    50 1
     3     3     4 ar
     4     3    50 1
     5     3    18 ar
     6     4     5 ar
     7     4    17 1
     8     5    16 ar
     9     6    16 ar
    10     6    18 ar
    11     7     8 1
    12     7    22 1
    13     8     9 1
    14     9    10 1
    15    10    52 1
    16    10    21 2
    17    11    12 1
    18    11    20 1
    19    12    13 1
    20    13    15 1
    21    13    52 1
    22    14    15 1
    23    14    20 1
    24    51    16 1
    25    18    19 1
    26    19    20 1
    27     1    23 1
    28     1    24 1
    29     1    25 1
    30     2    26 1
    31     2    27 1
    32     2    28 1
    33     5    29 1
    34     6    30 1
    35     7    31 1
    36     7    32 1
    37     8    33 1
    38     8    34 1
    39     9    35 1
    40     9    36 1
    41    11    37 1
    42    11    38 1
    43    12    39 1
    44    12    40 1
    45    13    41 1
    46    14    42 1
    47    14    43 1
    48    15    44 1
    49    15    45 1
    50    19    46 1
    51    19    47 1
    52    52    48 1
    53    22    49 1
@<TRIPOS>SUBSTRUCTURE
     1 F1L         1 TEMP              0 ****  ****    0 ROOT
