@<TRIPOS>MOLECULE
F1L
   52    53     1     0     0
SMALL
bcc


@<TRIPOS>ATOM
      1 C28          0.0000     0.0000     0.0000 c3         1 F1L       0.238700
      2 C26          4.5330     1.2730    -0.3950 c3         1 F1L       0.254700
      3 C24          3.4360    -0.0000     1.2870 ca         1 F1L       0.114100
      4 C23          2.0460     0.0000     1.2120 ca         1 F1L       0.133100
      5 C22          1.2930     0.0000     2.3750 ca         1 F1L      -0.187000
      6 C20          3.3040     0.0010     3.6800 ca         1 F1L      -0.114000
      7 C12          9.1960     9.7100     4.0230 c3         1 F1L       0.101700
      8 C11          8.7810     8.2900     4.4160 c3         1 F1L       0.006600
      9 C10          8.6040     7.4430     3.1540 c3         1 F1L      -0.097400
     10 C8           8.1960     6.0440     3.5400 c          1 F1L       0.572100
     11 C4           7.5270     1.3720     2.2270 c3         1 F1L       0.153800
     12 C5           7.9970     2.7810     1.8570 c3         1 F1L      -0.039900
     13 C6           7.5850     3.7580     2.9620 c3         1 F1L       0.014700
     14 C2           5.6510     2.2640     3.4760 c3         1 F1L       0.153800
     15 C1           6.0660     3.7000     3.1430 c3         1 F1L      -0.039900
     16 C21          1.9220     0.0000     3.6070 ca         1 F1L       0.068100
     17 O27          1.4290     0.0000     0.0000 os         1 F1L      -0.290900
     18 C19          4.0600     0.0060     2.5230 ca         1 F1L      -0.078300
     19 C18          5.5650     0.0060     2.6080 c3         1 F1L       0.214100
     20 N3           6.0670     1.3690     2.3880 n3         1 F1L      -0.544600
     21 O9           8.0610     5.7540     4.7100 o          1 F1L      -0.643100
     22 S13          9.4060    10.7130     5.5190 sh         1 F1L      -0.401900
     23 H28         -0.3610    -0.8910     0.4990 h1         1 F1L      -0.000300
     24 H28A        -0.3610     0.8780     0.5230 h1         1 F1L      -0.000300
     25 H28B        -0.3610     0.0140    -1.0210 h1         1 F1L      -0.000300
     26 H26          4.0160     1.4210    -1.3350 h1         1 F1L      -0.006300
     27 H26A         5.6030     1.3140    -0.5610 h1         1 F1L      -0.006300
     28 H26B         4.2460     2.0520     0.3010 h1         1 F1L      -0.006300
     29 H22          0.2110     0.0000     2.3190 ha         1 F1L       0.135000
     30 H20          3.7940     0.0040     4.6460 ha         1 F1L       0.123000
     31 H12          8.4290    10.1500     3.3980 h1         1 F1L       0.026200
     32 H12A        10.1310     9.6750     3.4770 h1         1 F1L       0.026200
     33 H11          9.5480     7.8490     5.0410 hc         1 F1L       0.045700
     34 H11A         7.8460     8.3240     4.9610 hc         1 F1L       0.045700
     35 H10          7.8360     7.8830     2.5290 hc         1 F1L       0.026200
     36 H10A         9.5390     7.4080     2.6080 hc         1 F1L       0.026200
     37 H4           7.8040     0.6820     1.4390 h1         1 F1L       0.016200
     38 H4A          7.9920     1.0710     3.1580 h1         1 F1L       0.016200
     39 H5           9.0760     2.7860     1.7550 hc         1 F1L       0.025950
     40 H5A          7.5390     3.0800     0.9220 hc         1 F1L       0.025950
     41 H6           8.0700     3.4780     3.8890 h1         1 F1L       0.058700
     42 H2           6.1300     1.9560     4.3980 h1         1 F1L       0.016200
     43 H2A          4.5750     2.2180     3.5880 h1         1 F1L       0.016200
     44 H1           5.5810     4.0120     2.2260 hc         1 F1L       0.025950
     45 H1A          5.7750     4.3560     3.9540 hc         1 F1L       0.025950
     46 H18          5.8720    -0.3390     3.5880 h1         1 F1L       0.021200
     47 H18A         5.9690    -0.6550     1.8500 h1         1 F1L       0.021200
     48 HN7          8.1260     5.3470     1.6230 hn         1 F1L       0.172500
     49 HS13         9.7670    11.9440     5.1780 hs         1 F1L       0.182800
     50 O25          4.1780     0.0010     0.1480 os         1 F1L      -0.323900
     51 Br29         0.8930     0.0000     5.1930 br         1 F1L      -0.129100
     52 N7           7.9810     5.1170     2.5860 ns         1 F1L      -0.192900
@<TRIPOS>BOND
     1     1    17 1   
     2     1    23 1   
     3     1    24 1   
     4     1    25 1   
     5     2    26 1   
     6     2    27 1   
     7     2    28 1   
     8     2    50 1   
     9     3     4 ar  
    10     3    18 ar  
    11     3    50 1   
    12     4     5 ar  
    13     4    17 1   
    14     5    16 ar  
    15     5    29 1   
    16     6    16 ar  
    17     6    18 ar  
    18     6    30 1   
    19     7     8 1   
    20     7    22 1   
    21     7    31 1   
    22     7    32 1   
    23     8     9 1   
    24     8    33 1   
    25     8    34 1   
    26     9    10 1   
    27     9    35 1   
    28     9    36 1   
    29    10    21 2   
    30    10    52 1   
    31    11    12 1   
    32    11    20 1   
    33    11    37 1   
    34    11    38 1   
    35    12    13 1   
    36    12    39 1   
    37    12    40 1   
    38    13    15 1   
    39    13    41 1   
    40    13    52 1   
    41    14    15 1   
    42    14    20 1   
    43    14    42 1   
    44    14    43 1   
    45    15    44 1   
    46    15    45 1   
    47    16    51 1   
    48    18    19 1   
    49    19    20 1   
    50    19    46 1   
    51    19    47 1   
    52    22    49 1   
    53    48    52 1   
@<TRIPOS>SUBSTRUCTURE
     1 F1L         1 TEMP              0 ****  ****    0 ROOT
