@<TRIPOS>MOLECULE
F1N
   72    69     1     0     0
SMALL
bcc


@<TRIPOS>ATOM
      1 C31         0.2350    1.6590   -1.6310 c3        1 F1N      0.051000
      2 C28        -0.6930    0.7730    1.1540 c2        1 F1N     -0.125000
      3 C27        -0.9190    0.4470    2.4560 c2        1 F1N      0.017000
      4 C26        -0.0640   -0.5310    3.1730 c3        1 F1N     -0.168000
      5 C24         1.1710   -0.9380    0.9860 c3        1 F1N     -0.190000
      6 C23         1.1230   -2.2130    0.1190 c3        1 F1N     -0.019000
      7 C22        -1.0990   -3.6050    0.2480 c1        1 F1N     -0.089000
      8 C17        -2.2750   -4.4140    0.3300 c2        1 F1N      0.211000
      9 C11        -6.5850   -9.1800   -2.6200 c3        1 F1N     -0.195000
     10 C10        -6.7640  -10.4740   -3.2660 c1        1 F1N     -0.127000
     11 C9         -5.7030  -11.2580   -3.6970 c2        1 F1N     -1.046000
     12 C8         -4.3760  -10.8050   -3.5540 c2        1 F1N      0.216000
     13 C7         -4.0960   -9.5930   -2.9320 c2        1 F1N     -0.335000
     14 C6         -5.1350   -8.7940   -2.4460 c2        1 F1N      0.209000
     15 C3         -3.6450   -7.1260   -1.5850 c3        1 F1N     -0.051000
     16 CL36       -1.0710   -1.6750    4.0460 cl        1 F1N      0.042000
     17 O34        -1.4980    1.7290    0.4930 os        1 F1N     -0.156000
     18 C35        -2.6630    1.9890    1.0840 c1        1 F1N     -0.009000
     19 C29         0.3620    0.1900    0.3670 c2        1 F1N      0.308000
     20 O30         0.7740    0.5270   -0.8180 os        1 F1N     -0.124000
     21 C33         1.4180    2.0570   -2.4860 c3        1 F1N     -0.249500
     22 C32        -0.9290    1.1350   -2.4320 c3        1 F1N     -0.249500
     23 C25         0.9060   -1.2750    2.3740 c1        1 F1N      0.061000
     24 N20        -3.3070   -6.9070    1.7090 n3        1 F1N     -0.381000
     25 C21        -0.1110   -2.9300    0.2000 c1        1 F1N     -0.152000
     26 C19        -2.6390   -5.8170    2.3820 c3        1 F1N     -0.079000
     27 C18        -2.8850   -4.4640    1.7100 c3        1 F1N     -0.187000
     28 O1         -4.9600   -5.4900   -0.3900 o         1 F1N     -0.286000
     29 O5         -4.9850   -7.6290   -1.8090 os        1 F1N     -0.148000
     30 O15        -5.7120  -12.8580   -5.6360 o         1 F1N     -0.863000
     31 O16        -6.1640  -13.7320   -3.4580 o         1 F1N     -0.863000
     32 N14        -7.9730  -12.3950   -4.5930 n4        1 F1N     -0.538000
     33 H31        -0.0550    2.4800   -0.9230 h1        1 F1N      0.137000
     34 H27         0.5340    0.0130    3.9800 h1        1 F1N      0.228000
     35 H23         1.9590   -2.8890    0.4700 hc        1 F1N      0.155000
     36 H23A       -3.0420   -7.7800    2.1210 hn        1 F1N      0.161500
     37 H22         3.0930    0.0530   -1.5910 ha        1 F1N      0.007250
     38 H22A        3.0720   -0.3890   -1.0760 ha        1 F1N      0.007250
     39 H17         1.3360   -1.9210   -0.9510 hc        1 F1N      0.155000
     40 H12        -8.8010   -7.3220   -1.6920 ha        1 F1N      0.007250
     41 H12A       -6.9940   -7.1950   -3.4370 ha        1 F1N      0.063000
     42 H12B       -8.1960   -7.1910   -1.4020 ha        1 F1N      0.007250
     43 H10        -7.0430   -9.3060   -1.5680 hc        1 F1N      0.257000
     44 H8         -3.5330  -11.4120   -3.9400 ha        1 F1N      0.170000
     45 H7         -3.0470   -9.2720   -2.8280 ha        1 F1N      0.176000
     46 H3         -3.0710   -7.8600   -0.9610 h1        1 F1N      0.144000
     47 H3A        -3.1510   -6.9470   -2.5750 h1        1 F1N      0.144000
     48 H35        -3.1800    2.7560    0.4560 ha        1 F1N      0.095000
     49 H35A       -2.2030    3.7800    2.5430 ha        1 F1N      0.007250
     50 H35B       -1.7620    3.2910    2.7140 ha        1 F1N      0.007250
     51 H33         1.1180    2.9380   -3.1070 hc        1 F1N      0.119000
     52 H33A        2.2920    2.3410   -1.8520 hc        1 F1N      0.119000
     53 H33B        1.7220    1.2220   -3.1630 hc        1 F1N      0.119000
     54 H32        -1.7730    0.8430   -1.7600 hc        1 F1N      0.119000
     55 H32A       -1.2830    1.9430   -3.1220 hc        1 F1N      0.119000
     56 H32B       -0.6250    0.2510   -3.0450 hc        1 F1N      0.119000
     57 H25         2.2680   -0.5990    0.9660 hc        1 F1N      0.223000
     58 H21         1.3230   -0.9120   -2.8450 ha        1 F1N      0.007250
     59 H21A        1.3600   -1.3710   -3.3430 ha        1 F1N      0.007250
     60 H19        -4.3030   -6.8020    1.7640 hn        1 F1N      0.161500
     61 H19A       -2.9600   -5.7100    3.4610 h1        1 F1N      0.090500
     62 H18        -1.5320   -6.0320    2.3830 h1        1 F1N      0.090500
     63 H18A       -3.9880   -4.2600    1.6280 hc        1 F1N      0.123500
     64 HN4        -2.4350   -3.6670    2.3570 hc        1 F1N      0.123500
     65 HN14       -8.2290  -11.5030   -4.1030 hn        1 F1N      0.273000
     66 HN1A       -8.2220  -12.3100   -5.5750 hn        1 F1N      0.273000
     67 C12        -7.4710   -8.1700   -3.2380 c1        1 F1N      0.073000
     68 H143       -8.5290  -13.1470   -4.1900 hn        1 F1N      0.273000
     69 H42        -1.7700    0.9150    3.0030 ha        1 F1N      0.231000
     70 N4         -2.6780   -5.0290   -0.7370 n2        1 F1N     -0.234000
     71 C2         -3.8460   -5.8250   -0.8090 c2        1 F1N      0.302000
     72 S13        -6.1630  -12.6760   -4.3440 s6        1 F1N      2.850000
@<TRIPOS>BOND
     1    1   20 1   
     2    1   21 1   
     3    1   22 1   
     4    1   33 1   
     5    2    3 1   
     6    2   17 1   
     7    2   19 1   
     8    3    4 1   
     9    3   69 1   
    10    4   16 1   
    11    4   23 1   
    12    4   34 1   
    13    5    6 1   
    14    5   19 1   
    15    5   23 1   
    16    5   57 1   
    17    6   25 1   
    18    6   35 1   
    19    6   39 1   
    20    7    8 1   
    21    7   25 1   
    22    8   27 1   
    23    8   70 1   
    24    9   10 1   
    25    9   14 1   
    26    9   43 1   
    27    9   67 1   
    28   10   11 1   
    29   11   12 1   
    30   11   72 1   
    31   12   13 1   
    32   12   44 1   
    33   13   14 1   
    34   13   45 1   
    35   14   29 1   
    36   15   29 1   
    37   15   46 1   
    38   15   47 1   
    39   15   71 1   
    40   17   18 1   
    41   18   48 1   
    42   19   20 1   
    43   21   51 1   
    44   21   52 1   
    45   21   53 1   
    46   22   54 1   
    47   22   55 1   
    48   22   56 1   
    49   24   26 1   
    50   24   36 1   
    51   24   60 1   
    52   26   27 1   
    53   26   61 1   
    54   26   62 1   
    55   27   63 1   
    56   27   64 1   
    57   28   71 1   
    58   30   72 1   
    59   31   72 1   
    60   32   65 1   
    61   32   66 1   
    62   32   68 1   
    63   32   72 1   
    64   37   38 1   
    65   40   42 1   
    66   41   67 1   
    67   49   50 1   
    68   58   59 1   
    69   70   71 1   
@<TRIPOS>SUBSTRUCTURE
     1 F1N         1 TEMP              0 ****  ****    0 ROOT
