@<TRIPOS>MOLECULE
F1Q
   43    44     1     0     0
SMALL
bcc


@<TRIPOS>ATOM
      1 N1           0.0000     0.0000     0.0000 n          1 F1Q      -0.150800
      2 C5           1.4660     0.0000     0.0000 c3         1 F1Q       0.109300
      3 C4          -0.6730     0.0000     1.1670 c          1 F1Q       0.612100
      4 N3          -3.1740     0.7690    -1.3030 na         1 F1Q       0.355600
      5 C2          -3.9440    -0.9520     2.3360 c          1 F1Q       0.665100
      6 C10          2.6590    -3.3740    -1.2000 ca         1 F1Q      -0.193000
      7 C13         -1.8610     1.0330    -1.2010 cc         1 F1Q       0.151800
      8 C12         -0.7320     0.0060    -1.2690 c3         1 F1Q       0.061700
      9 C11          2.1980    -2.0720    -1.1970 ca         1 F1Q      -0.031000
     10 O2          -0.0650     0.0010     2.2200 o          1 F1Q      -0.685100
     11 N           -2.0210     0.0000     1.1660 ns         1 F1Q      -0.266900
     12 C3          -2.7540     0.0010     2.4350 c3         1 F1Q       0.008000
     13 O1          -3.8600    -2.0510     2.7680 o          1 F1Q      -0.525000
     14 O           -5.1460    -0.5130     1.7710 os         1 F1Q      -0.424900
     15 C1          -6.0720    -1.5360     1.5430 c3         1 F1Q       0.202400
     16 C           -7.4790    -0.9450     1.4830 c3         1 F1Q      -0.003100
     17 N6          -1.7110     2.3620    -1.0880 nd         1 F1Q      -0.351000
     18 N5          -2.9430     2.9270    -1.1200 nd         1 F1Q       0.001000
     19 N4          -3.8430     1.9470    -1.2530 nc         1 F1Q      -0.379800
     20 C6           1.9680    -1.4210     0.0020 ca         1 F1Q      -0.195300
     21 C9           2.8850    -4.0310     0.0030 ca         1 F1Q       0.062600
     22 N2           3.3270    -5.3570    -0.0070 nv         1 F1Q      -0.445200
     23 C8           2.6480    -3.3760     1.2040 ca         1 F1Q      -0.193000
     24 C7           2.1980    -2.0710     1.2000 ca         1 F1Q      -0.031000
     25 H1           1.8270     0.2580     0.9880 h1         1 F1Q       0.048200
     26 H2           1.8270     0.7270    -0.7180 h1         1 F1Q       0.048200
     27 H4           2.8380    -3.8830    -2.1390 ha         1 F1Q       0.110000
     28 H5          -0.0560     0.2650    -2.0750 h1         1 F1Q       0.033200
     29 H6          -1.1490    -0.9780    -1.4500 h1         1 F1Q       0.033200
     30 H7           2.0210    -1.5580    -2.1340 ha         1 F1Q       0.109500
     31 H8          -2.5200     0.2640     0.3400 hn         1 F1Q       0.174500
     32 H9          -3.1090     1.0020     2.6460 h1         1 F1Q       0.056200
     33 H10         -2.0960    -0.3250     3.2320 h1         1 F1Q       0.056200
     34 H11         -5.8450    -2.0250     0.6040 h1         1 F1Q       0.006700
     35 H12         -6.0180    -2.2580     2.3490 h1         1 F1Q       0.006700
     36 H13         -7.5170    -0.1820     0.7150 hc         1 F1Q       0.011700
     37 H14         -8.1900    -1.7280     1.2490 hc         1 F1Q       0.011700
     38 H15         -7.7270    -0.5060     2.4410 hc         1 F1Q       0.011700
     39 H16          3.4270    -5.8450    -0.8750 hn         1 F1Q       0.266300
     40 H17          3.5400    -5.8190     0.8550 hn         1 F1Q       0.266300
     41 H18          2.8240    -3.8860     2.1430 ha         1 F1Q       0.110000
     42 H19          2.0490    -1.5480     2.1370 ha         1 F1Q       0.109500
     43 H3          -3.5850    -0.1370    -1.4030 hn         1 F1Q       0.175700
@<TRIPOS>BOND
     1     1     2 1   
     2     1     3 1   
     3     1     8 1   
     4     2    20 1   
     5     2    25 1   
     6     2    26 1   
     7     3    10 2   
     8     3    11 1   
     9     4     7 1   
    10     4    19 1   
    11     4    43 1   
    12     5    12 1   
    13     5    13 2   
    14     5    14 1   
    15     6     9 ar  
    16     6    21 ar  
    17     6    27 1   
    18     7     8 1   
    19     7    17 2   
    20     8    28 1   
    21     8    29 1   
    22     9    20 ar  
    23     9    30 1   
    24    11    12 1   
    25    11    31 1   
    26    12    32 1   
    27    12    33 1   
    28    14    15 1   
    29    15    16 1   
    30    15    34 1   
    31    15    35 1   
    32    16    36 1   
    33    16    37 1   
    34    16    38 1   
    35    17    18 1   
    36    18    19 2   
    37    20    24 ar  
    38    21    22 1   
    39    21    23 ar  
    40    22    39 1   
    41    22    40 1   
    42    23    24 ar  
    43    23    41 1   
    44    24    42 1   
@<TRIPOS>SUBSTRUCTURE
     1 F1Q         1 TEMP              0 ****  ****    0 ROOT
