@<TRIPOS>MOLECULE
F1S
   56    59     1     0     0
SMALL
bcc


@<TRIPOS>ATOM
      1 C31          0.0000     0.0000     0.0000 c3         1 F1S       0.013700
      2 S30          1.8140     0.0000     0.0000 s6         1 F1S       0.954900
      3 O32          2.3120     0.0000     1.3300 o          1 F1S      -0.584800
      4 O33          2.3130    -0.9110    -0.9700 o          1 F1S      -0.584800
      5 N27          2.2260     1.4910    -0.5910 nu         1 F1S      -0.397500
      6 C26          1.9050     2.6430     0.1330 ca         1 F1S      -0.017700
      7 C25          1.9330     2.6330     1.5230 ca         1 F1S      -0.198000
      8 C21          1.5590     3.8170    -0.5280 ca         1 F1S       0.333300
      9 Cl2          1.5250     3.8470    -2.2640 cl         1 F1S      -0.101000
     10 N22          1.2540     4.9070     0.1480 nb         1 F1S      -0.519000
     11 C23          1.2650     4.9340     1.4670 ca         1 F1S       0.339200
     12 C24          1.6050     3.8040     2.1990 ca         1 F1S      -0.079700
     13 N28          1.6180     3.8440     3.5970 nu         1 F1S      -0.289300
     14 C2           0.8100     4.7440     4.2730 ca         1 F1S       0.526200
     15 N1           0.1060     5.6350     3.5930 nb         1 F1S      -0.647000
     16 C6          -0.6800     6.5060     4.1960 ca         1 F1S       0.468200
     17 C5          -0.8020     6.5260     5.5720 ca         1 F1S      -0.273600
     18 C15         -1.7060     7.5290     6.2410 c3         1 F1S       0.027600
     19 C16         -1.2480     8.9470     5.8870 c3         1 F1S      -0.068900
     20 C17         -2.2170     9.9580     6.5040 c3         1 F1S       0.215400
     21 O18         -3.5410     9.6990     6.0300 os         1 F1S      -0.408600
     22 C19         -4.0400     8.4040     6.3720 c3         1 F1S       0.215400
     23 C20         -3.1440     7.3320     5.7490 c3         1 F1S      -0.068900
     24 C4          -0.0880     5.6150     6.3330 ca         1 F1S       0.027000
     25 C3           0.7380     4.7020     5.6740 cp         1 F1S      -0.338800
     26 C7           1.5190     3.7040     6.4380 cp         1 F1S       0.758500
     27 N12          0.9230     2.9630     7.3680 nb         1 F1S      -0.745000
     28 N8           2.8180     3.5400     6.1920 nb         1 F1S      -0.748000
     29 C9           3.5150     2.6490     6.8740 ca         1 F1S       0.692300
     30 C13          4.9850     2.4680     6.5920 c3         1 F1S      -0.036400
     31 N10          2.9270     1.9150     7.8030 nb         1 F1S      -0.749000
     32 C11          1.6280     2.0680     8.0510 ca         1 F1S       0.739900
     33 N14          1.0150     1.2970     9.0180 nv         1 F1S      -0.469500
     34 H1          -0.3610     0.4290     0.9270 h1         1 F1S       0.067033
     35 H2          -0.3610    -1.0170    -0.0920 h1         1 F1S       0.067033
     36 H3          -0.3610     0.5880    -0.8350 h1         1 F1S       0.067033
     37 H4           2.7210     1.5670    -1.4570 hn         1 F1S       0.359800
     38 H5           2.2030     1.7350     2.0670 ha         1 F1S       0.188000
     39 H6           1.0080     5.8510     1.9850 h4         1 F1S       0.045100
     40 H7           2.2240     3.2340     4.1090 hn         1 F1S       0.314800
     41 H8          -1.2400     7.2180     3.6020 h4         1 F1S      -0.010900
     42 H9          -1.6710     7.3970     7.3160 hc         1 F1S       0.029700
     43 H10         -1.2410     9.0650     4.8100 hc         1 F1S       0.027450
     44 H11         -0.2530     9.1140     6.2810 hc         1 F1S       0.027450
     45 H12         -2.1970     9.8630     7.5830 h1         1 F1S       0.007200
     46 H13         -1.9220    10.9600     6.2180 h1         1 F1S       0.007200
     47 H14         -4.0400     8.2920     7.4500 h1         1 F1S       0.007200
     48 H15         -5.0490     8.2950     5.9930 h1         1 F1S       0.007200
     49 H16         -3.1710     7.4210     4.6700 hc         1 F1S       0.027450
     50 H17         -3.4950     6.3510     6.0460 hc         1 F1S       0.027450
     51 H18         -0.1680     5.6120     7.4140 ha         1 F1S       0.117000
     52 H19          5.1350     1.5540     6.0300 hc         1 F1S       0.024700
     53 H20          5.3480     3.3100     6.0160 hc         1 F1S       0.024700
     54 H21          5.5270     2.4100     7.5280 hc         1 F1S       0.024700
     55 H22          1.5490     0.6280     9.5370 hn         1 F1S       0.278800
     56 H23          0.0340     1.3970     9.1890 hn         1 F1S       0.278800
@<TRIPOS>BOND
     1     1     2 1   
     2     1    34 1   
     3     1    35 1   
     4     1    36 1   
     5     2     3 2   
     6     2     4 2   
     7     2     5 1   
     8     5     6 1   
     9     5    37 1   
    10     6     7 ar  
    11     6     8 ar  
    12     7    12 ar  
    13     7    38 1   
    14     8     9 1   
    15     8    10 ar  
    16    10    11 ar  
    17    11    12 ar  
    18    11    39 1   
    19    12    13 1   
    20    13    14 1   
    21    13    40 1   
    22    14    15 ar  
    23    14    25 ar  
    24    15    16 ar  
    25    16    17 ar  
    26    16    41 1   
    27    17    18 1   
    28    17    24 ar  
    29    18    19 1   
    30    18    23 1   
    31    18    42 1   
    32    19    20 1   
    33    19    43 1   
    34    19    44 1   
    35    20    21 1   
    36    20    45 1   
    37    20    46 1   
    38    21    22 1   
    39    22    23 1   
    40    22    47 1   
    41    22    48 1   
    42    23    49 1   
    43    23    50 1   
    44    24    25 ar  
    45    24    51 1   
    46    25    26 1   
    47    26    27 ar  
    48    26    28 ar  
    49    27    32 ar  
    50    28    29 ar  
    51    29    30 1   
    52    29    31 ar  
    53    30    52 1   
    54    30    53 1   
    55    30    54 1   
    56    31    32 ar  
    57    32    33 1   
    58    33    55 1   
    59    33    56 1   
@<TRIPOS>SUBSTRUCTURE
     1 F1S         1 TEMP              0 ****  ****    0 ROOT
