@<TRIPOS>MOLECULE
molecule
   56    59     1     0     0
SMALL
bcc


@<TRIPOS>ATOM
      1 C31          0.0000     0.0000     0.0000 c3         1 F1S      -0.244300
      2 S30          1.8140     0.0000     0.0000 s6         1 F1S       1.327900
      3 O32          2.3120     0.0000     1.3300 o          1 F1S      -0.627800
      4 O33          2.3130    -0.9110    -0.9700 o          1 F1S      -0.627800
      5 N27          2.2260     1.4910    -0.5910 nu         1 F1S      -0.758500
      6 C26          1.9050     2.6430     0.1330 ca         1 F1S       0.054300
      7 C25          1.9330     2.6330     1.5230 ca         1 F1S      -0.196000
      8 C21          1.5590     3.8170    -0.5280 ca         1 F1S       0.462300
      9 Cl2          1.5250     3.8470    -2.2640 cl         1 F1S      -0.165000
     10 N22          1.2540     4.9070     0.1480 nb         1 F1S      -0.650000
     11 C23          1.2650     4.9340     1.4670 ca         1 F1S       0.399200
     12 C24          1.6050     3.8040     2.1990 ca         1 F1S       0.063300
     13 N28          1.6180     3.8440     3.5970 nu         1 F1S      -0.749300
     14 C2           0.8100     4.7440     4.2730 ca         1 F1S       0.723200
     15 N1           0.1060     5.6350     3.5930 nb         1 F1S      -0.762000
     16 C6          -0.6800     6.5060     4.1960 ca         1 F1S       0.486200
     17 C5          -0.8020     6.5260     5.5720 ca         1 F1S      -0.262600
     18 C15         -1.7060     7.5290     6.2410 c3         1 F1S      -0.014400
     19 C16         -1.2480     8.9470     5.8870 c3         1 F1S      -0.113400
     20 C17         -2.2170     9.9580     6.5040 c3         1 F1S       0.137400
     21 O18         -3.5410     9.6990     6.0300 os         1 F1S      -0.420600
     22 C19         -4.0400     8.4040     6.3720 c3         1 F1S       0.137400
     23 C20         -3.1440     7.3320     5.7490 c3         1 F1S      -0.113400
     24 C4          -0.0880     5.6150     6.3330 ca         1 F1S      -0.006000
     25 C3           0.7380     4.7020     5.6740 cp         1 F1S      -0.314800
     26 C7           1.5190     3.7040     6.4380 cp         1 F1S       0.819500
     27 N12          0.9230     2.9630     7.3680 nb         1 F1S      -0.843000
     28 N8           2.8180     3.5400     6.1920 nb         1 F1S      -0.846000
     29 C9           3.5150     2.6490     6.8740 ca         1 F1S       0.764300
     30 C13          4.9850     2.4680     6.5920 c3         1 F1S      -0.128400
     31 N10          2.9270     1.9150     7.8030 nb         1 F1S      -0.850000
     32 C11          1.6280     2.0680     8.0510 ca         1 F1S       0.975900
     33 N14          1.0150     1.2970     9.0180 nv         1 F1S      -0.975500
     34 H1          -0.3610     0.4290     0.9270 h1         1 F1S       0.103367
     35 H2          -0.3610    -1.0170    -0.0920 h1         1 F1S       0.103367
     36 H3          -0.3610     0.5880    -0.8350 h1         1 F1S       0.103367
     37 H4           2.7210     1.5670    -1.4570 hn         1 F1S       0.476800
     38 H5           2.2030     1.7350     2.0670 ha         1 F1S       0.200000
     39 H6           1.0080     5.8510     1.9850 h4         1 F1S       0.083100
     40 H7           2.2240     3.2340     4.1090 hn         1 F1S       0.482800
     41 H8          -1.2400     7.2180     3.6020 h4         1 F1S       0.034100
     42 H9          -1.6710     7.3970     7.3160 hc         1 F1S       0.056700
     43 H10         -1.2410     9.0650     4.8100 hc         1 F1S       0.054700
     44 H11         -0.2530     9.1140     6.2810 hc         1 F1S       0.054700
     45 H12         -2.1970     9.8630     7.5830 h1         1 F1S       0.047950
     46 H13         -1.9220    10.9600     6.2180 h1         1 F1S       0.047950
     47 H14         -4.0400     8.2920     7.4500 h1         1 F1S       0.047950
     48 H15         -5.0490     8.2950     5.9930 h1         1 F1S       0.047950
     49 H16         -3.1710     7.4210     4.6700 hc         1 F1S       0.054700
     50 H17         -3.4950     6.3510     6.0460 hc         1 F1S       0.054700
     51 H18         -0.1680     5.6120     7.4140 ha         1 F1S       0.153000
     52 H19          5.1350     1.5540     6.0300 hc         1 F1S       0.067033
     53 H20          5.3480     3.3100     6.0160 hc         1 F1S       0.067033
     54 H21          5.5270     2.4100     7.5280 hc         1 F1S       0.067033
     55 H22          1.5490     0.6280     9.5370 hn         1 F1S       0.455800
     56 H23          0.0340     1.3970     9.1890 hn         1 F1S       0.455800
@<TRIPOS>BOND
     1     3     2 2
     2     4     2 2
     3     2     5 1
     4     2     1 1
     5     5     6 1
     6    20    19 1
     7    20    21 1
     8    19    18 1
     9     6     7 ar
    10     6     8 ar
    11    18    17 1
    12    18    23 1
    13    22    21 1
    14    22    23 1
    15    16    17 ar
    16    16    15 ar
    17     7    12 ar
    18     9     8 1
    19    17    24 ar
    20    15    14 ar
    21     8    10 ar
    22    24    25 ar
    23    14    25 ar
    24    14    13 1
    25    12    13 1
    26    12    11 ar
    27    25    26 1
    28    10    11 ar
    29    26    27 ar
    30    26    28 ar
    31    27    32 ar
    32    28    29 ar
    33    32    33 1
    34    32    31 ar
    35    29    31 ar
    36    29    30 1
    37     1    34 1
    38     1    35 1
    39     1    36 1
    40     5    37 1
    41     7    38 1
    42    11    39 1
    43    13    40 1
    44    16    41 1
    45    18    42 1
    46    19    43 1
    47    19    44 1
    48    20    45 1
    49    20    46 1
    50    22    47 1
    51    22    48 1
    52    23    49 1
    53    23    50 1
    54    24    51 1
    55    30    52 1
    56    30    53 1
    57    30    54 1
    58    33    55 1
    59    33    56 1
@<TRIPOS>SUBSTRUCTURE
     1 F1S         1 TEMP              0 ****  ****    0 ROOT
