@<TRIPOS>MOLECULE
F1V
   42    43     1     0     0
SMALL
bcc


@<TRIPOS>ATOM
      1 C1           0.0000     0.0000     0.0000 ca         1 F1V       0.123100
      2 C2           1.3930     0.0000     0.0000 ca         1 F1V      -0.183000
      3 C3           2.0940     0.0000     1.1850 ca         1 F1V      -0.058000
      4 O1          -3.8420    -3.6250     4.7650 o          1 F1V      -0.645100
      5 C11         -6.3120    -4.0080     5.6560 c3         1 F1V       0.014233
      6 C12         -6.6760    -1.7440     4.6630 c3         1 F1V       0.014233
      7 C13         -5.8010    -1.9600     6.9940 c3         1 F1V       0.014233
      8 C14          0.0060     0.0040     2.4010 ca         1 F1V      -0.051800
      9 C15         -0.6960     0.0050     1.1930 ca         1 F1V      -0.097000
     10 C9          -4.3740    -2.5770     5.0620 c          1 F1V       0.581100
     11 C10         -5.7850    -2.5720     5.5910 c3         1 F1V      -0.146000
     12 N1          -3.7040    -1.4170     4.9180 ns         1 F1V      -0.204900
     13 C8          -2.3320    -1.4220     4.4030 c3         1 F1V       0.045000
     14 C6          -0.3960     0.0090     3.8090 cc         1 F1V      -0.164400
     15 O           -0.6770     0.0010    -1.1790 os         1 F1V      -0.308900
     16 C            0.1030     0.0020    -2.3750 c3         1 F1V       0.244700
     17 C4           1.4120    -0.0010     2.3970 ca         1 F1V      -0.258200
     18 N            1.8220     0.0000     3.7140 na         1 F1V       0.355600
     19 C5           0.7310     0.0050     4.5400 cd         1 F1V      -0.252100
     20 H1           1.9300    -0.0040    -0.9410 ha         1 F1V       0.118000
     21 H2           3.1770    -0.0000     1.1730 ha         1 F1V       0.097000
     22 H3          -5.6820    -4.5940     6.3140 hc         1 F1V       0.008811
     23 H4          -7.3260    -4.0030     6.0360 hc         1 F1V       0.008811
     24 H5          -6.3000    -4.4420     4.6630 hc         1 F1V       0.008811
     25 H6          -6.4900    -0.6900     4.8300 hc         1 F1V       0.008811
     26 H7          -7.7160    -1.9650     4.8690 hc         1 F1V       0.008811
     27 H8          -6.4520    -1.9910     3.6320 hc         1 F1V       0.008811
     28 H9          -4.9690    -2.3500     7.5670 hc         1 F1V       0.008811
     29 H10         -5.7150    -0.8830     6.9190 hc         1 F1V       0.008811
     30 H11         -6.7310    -2.2150     7.4880 hc         1 F1V       0.008811
     31 H12         -1.7790     0.0050     1.1920 ha         1 F1V       0.116000
     32 H13         -4.1340    -0.5540     5.1860 hn         1 F1V       0.176500
     33 H14         -2.3200    -1.8560     3.4110 h1         1 F1V       0.030200
     34 H15         -1.7020    -2.0080     5.0610 h1         1 F1V       0.030200
     35 H16         -1.8180     0.4470     5.3320 hc         1 F1V       0.014200
     36 H17         -2.4370     0.6000     3.6820 hc         1 F1V       0.014200
     37 H18          0.7270    -0.8830    -2.4000 h1         1 F1V      -0.004300
     38 H19         -0.5550     0.0030    -3.2350 h1         1 F1V      -0.004300
     39 H20          0.7290     0.8860    -2.3980 h1         1 F1V      -0.004300
     40 H21          2.7750    -0.0030     4.0200 hn         1 F1V       0.113700
     41 H22          0.7700     0.0070     5.6220 h4         1 F1V       0.140000
     42 C7          -1.8070     0.0140     4.3390 c3         1 F1V       0.061800
@<TRIPOS>BOND
     1     1     2 ar  
     2     1     9 ar  
     3     1    15 1   
     4     2     3 ar  
     5     2    20 1   
     6     3    17 ar  
     7     3    21 1   
     8     4    10 2   
     9     5    11 1   
    10     5    22 1   
    11     5    23 1   
    12     5    24 1   
    13     6    11 1   
    14     6    25 1   
    15     6    26 1   
    16     6    27 1   
    17     7    11 1   
    18     7    28 1   
    19     7    29 1   
    20     7    30 1   
    21     8     9 ar  
    22     8    14 1   
    23     8    17 ar  
    24     9    31 1   
    25    10    11 1   
    26    10    12 1   
    27    12    13 1   
    28    12    32 1   
    29    13    33 1   
    30    13    34 1   
    31    13    42 1   
    32    14    19 2   
    33    14    42 1   
    34    15    16 1   
    35    16    37 1   
    36    16    38 1   
    37    16    39 1   
    38    17    18 1   
    39    18    19 1   
    40    18    40 1   
    41    19    41 1   
    42    35    42 1   
    43    36    42 1   
@<TRIPOS>SUBSTRUCTURE
     1 F1V         1 TEMP              0 ****  ****    0 ROOT
