@<TRIPOS>MOLECULE
molecule
   42    43     1     0     0
SMALL
bcc


@<TRIPOS>ATOM
      1 C1           0.0000     0.0000     0.0000 ca         1 F1V       0.113100
      2 C2           1.3930     0.0000     0.0000 ca         1 F1V      -0.191000
      3 C3           2.0940     0.0000     1.1850 ca         1 F1V      -0.106000
      4 O1          -3.8420    -3.6250     4.7650 o          1 F1V      -0.606100
      5 C11         -6.3120    -4.0080     5.6560 c3         1 F1V      -0.077100
      6 C12         -6.6760    -1.7440     4.6630 c3         1 F1V      -0.077100
      7 C13         -5.8010    -1.9600     6.9940 c3         1 F1V      -0.077100
      8 C14          0.0060     0.0040     2.4010 ca         1 F1V      -0.060800
      9 C15         -0.6960     0.0050     1.1930 ca         1 F1V      -0.119000
     10 C9          -4.3740    -2.5770     5.0620 c          1 F1V       0.666100
     11 C10         -5.7850    -2.5720     5.5910 c3         1 F1V      -0.144000
     12 N1          -3.7040    -1.4170     4.9180 ns         1 F1V      -0.589900
     13 C8          -2.3320    -1.4220     4.4030 c3         1 F1V       0.112000
     14 C6          -0.3960     0.0090     3.8090 cc         1 F1V      -0.164400
     15 O           -0.6770     0.0010    -1.1790 os         1 F1V      -0.330900
     16 C            0.1030     0.0020    -2.3750 c3         1 F1V       0.130700
     17 C4           1.4120    -0.0010     2.3970 ca         1 F1V      -0.068200
     18 N            1.8220     0.0000     3.7140 na         1 F1V      -0.183400
     19 C5           0.7310     0.0050     4.5400 cd         1 F1V      -0.084100
     20 H1           1.9300    -0.0040    -0.9410 ha         1 F1V       0.136000
     21 H2           3.1770    -0.0000     1.1730 ha         1 F1V       0.126000
     22 H3          -5.6820    -4.5940     6.3140 hc         1 F1V       0.040589
     23 H4          -7.3260    -4.0030     6.0360 hc         1 F1V       0.040589
     24 H5          -6.3000    -4.4420     4.6630 hc         1 F1V       0.040589
     25 H6          -6.4900    -0.6900     4.8300 hc         1 F1V       0.040589
     26 H7          -7.7160    -1.9650     4.8690 hc         1 F1V       0.040589
     27 H8          -6.4520    -1.9910     3.6320 hc         1 F1V       0.040589
     28 H9          -4.9690    -2.3500     7.5670 hc         1 F1V       0.040589
     29 H10         -5.7150    -0.8830     6.9190 hc         1 F1V       0.040589
     30 H11         -6.7310    -2.2150     7.4880 hc         1 F1V       0.040589
     31 H12         -1.7790     0.0050     1.1920 ha         1 F1V       0.145000
     32 H13         -4.1340    -0.5540     5.1860 hn         1 F1V       0.311500
     33 H14         -2.3200    -1.8560     3.4110 h1         1 F1V       0.057700
     34 H15         -1.7020    -2.0080     5.0610 h1         1 F1V       0.057700
     35 H16         -1.8180     0.4470     5.3320 hc         1 F1V       0.047700
     36 H17         -2.4370     0.6000     3.6820 hc         1 F1V       0.047700
     37 H18          0.7270    -0.8830    -2.4000 h1         1 F1V       0.038700
     38 H19         -0.5550     0.0030    -3.2350 h1         1 F1V       0.038700
     39 H20          0.7290     0.8860    -2.3980 h1         1 F1V       0.038700
     40 H21          2.7750    -0.0030     4.0200 hn         1 F1V       0.296700
     41 H22          0.7700     0.0070     5.6220 h4         1 F1V       0.166000
     42 C7          -1.8070     0.0140     4.3390 c3         1 F1V      -0.018200
@<TRIPOS>BOND
     1     6    11 1
     2     5    11 1
     3    11    10 1
     4    11     7 1
     5    12    10 1
     6    12    13 1
     7    10     4 2
     8    13    42 1
     9    19    18 1
    10    19    14 2
    11    42    14 1
    12    18    17 1
    13    14     8 1
    14    17     8 ar
    15    17     3 ar
    16     8     9 ar
    17     3     2 ar
    18     9     1 ar
    19     2     1 ar
    20     1    15 1
    21    15    16 1
    22     2    20 1
    23     3    21 1
    24     5    22 1
    25     5    23 1
    26     5    24 1
    27     6    25 1
    28     6    26 1
    29     6    27 1
    30     7    28 1
    31     7    29 1
    32     7    30 1
    33     9    31 1
    34    12    32 1
    35    13    33 1
    36    13    34 1
    37    42    35 1
    38    42    36 1
    39    16    37 1
    40    16    38 1
    41    16    39 1
    42    18    40 1
    43    19    41 1
@<TRIPOS>SUBSTRUCTURE
     1 F1V         1 TEMP              0 ****  ****    0 ROOT
