@<TRIPOS>MOLECULE
molecule
   41    43     1     0     0
SMALL
bcc


@<TRIPOS>ATOM
      1 C10          0.0000     0.0000     0.0000 ca         1 F1Y      -0.196600
      2 C13         -0.7400    -0.0010    -1.2760 c          1 F1Y       0.693700
      3 C20         -0.7170     3.1380     6.6430 cc         1 F1Y      -0.125000
      4 C21         -0.5430     1.9050     7.1880 cd         1 F1Y      -0.088000
      5 C22          0.1980     0.9350     6.4820 cd         1 F1Y      -0.013300
      6 C01          1.3560    -4.5630     4.9520 c3         1 F1Y      -0.093100
      7 C02          0.7880    -3.1450     5.0210 c3         1 F1Y      -0.081400
      8 C04          1.2450    -0.8210     5.7560 cc         1 F1Y       0.098400
      9 C05          1.3920     0.1380     4.8060 cd         1 F1Y      -0.002100
     10 C07          1.3870     0.0120     2.3930 ca         1 F1Y       0.212600
     11 C08          2.0820     0.0000     1.1880 ca         1 F1Y      -0.209500
     12 C09          1.3980     0.0000     0.0000 ca         1 F1Y      -0.041500
     13 C11         -0.6960     0.0060     1.2130 ca         1 F1Y      -0.041500
     14 C12         -0.0060     0.0130     2.3970 ca         1 F1Y      -0.209500
     15 C18          0.5550     2.4990     4.7230 cd         1 F1Y      -0.077300
     16 C19         -0.1560     3.4320     5.3870 cc         1 F1Y      -0.162000
     17 N06          2.0830     0.0120     3.5960 nu         1 F1Y      -0.653400
     18 N15         -2.0880    -0.0000    -1.2740 ns         1 F1Y      -0.473400
     19 N17          0.7330     1.2520     5.2540 na         1 F1Y       0.031700
     20 N23          0.5200    -0.3190     6.7600 nc         1 F1Y      -0.309600
     21 O14         -0.1330    -0.0010    -2.3300 o          1 F1Y      -0.582100
     22 O16         -2.7960    -0.0010    -2.4990 oh         1 F1Y      -0.361100
     23 H1          -1.2880     3.8910     7.1730 ha         1 F1Y       0.145000
     24 H2          -0.9710     1.6690     8.1550 ha         1 F1Y       0.162000
     25 H3           0.6260    -5.2240     4.5010 hc         1 F1Y       0.034033
     26 H4           1.5860    -4.9100     5.9530 hc         1 F1Y       0.034033
     27 H5           2.2600    -4.5620     4.3540 hc         1 F1Y       0.034033
     28 H6          -0.1280    -3.1510     5.6000 hc         1 F1Y       0.049200
     29 H7           2.7220    -2.2120     5.1100 hc         1 F1Y       0.055700
     30 H8           3.1660    -0.0000     1.1880 ha         1 F1Y       0.142000
     31 H9           1.9410    -0.0090    -0.9380 ha         1 F1Y       0.141500
     32 H10         -1.7790     0.0070     1.2170 ha         1 F1Y       0.141500
     33 H11         -0.5450     0.0200     3.3370 ha         1 F1Y       0.142000
     34 H12          0.9820     2.7370     3.7560 h4         1 F1Y       0.167000
     35 H13         -0.2940     4.4150     4.9530 ha         1 F1Y       0.151000
     36 H14          3.0830    -0.0440     3.5950 hn         1 F1Y       0.457800
     37 H15         -2.5860     0.0490    -0.4070 hn         1 F1Y       0.319500
     38 H16         -3.7030    -0.2030    -2.3380 ho         1 F1Y       0.397000
     39 H17          0.5790    -2.7910     4.0190 hc         1 F1Y       0.049200
     40 H18          2.0150    -2.5730     6.6900 hc         1 F1Y       0.055700
     41 C03          1.8060    -2.2180     5.6880 c3         1 F1Y       0.003800
@<TRIPOS>BOND
     1     7     6 1
     2     7    41 1
     3    41     8 1
     4    22    18 1
     5    18     2 1
     6     2     1 1
     7     2    21 2
     8     8    20 1
     9     8     9 2
    10    13     1 ar
    11    13    14 ar
    12     1    12 ar
    13    14    10 ar
    14    20     5 2
    15    12    11 ar
    16    10    11 ar
    17    10    17 1
    18    17     9 1
    19     9    19 1
    20     5    19 1
    21     5     4 1
    22    19    15 1
    23     4     3 2
    24    15    16 2
    25     3    16 1
    26     3    23 1
    27     4    24 1
    28     6    25 1
    29     6    26 1
    30     6    27 1
    31     7    28 1
    32    41    29 1
    33    11    30 1
    34    12    31 1
    35    13    32 1
    36    14    33 1
    37    15    34 1
    38    16    35 1
    39    17    36 1
    40    18    37 1
    41    22    38 1
    42     7    39 1
    43    41    40 1
@<TRIPOS>SUBSTRUCTURE
     1 F1Y         1 TEMP              0 ****  ****    0 ROOT
