@<TRIPOS>MOLECULE
F1Z
   40    41     1     0     0
SMALL
bcc


@<TRIPOS>ATOM
      1 O2           0.0000     0.0000     0.0000 o          1 F1Z      -0.475000
      2 C4           1.2150     0.0000     0.0000 c2         1 F1Z       0.235000
      3 N            1.8890     0.0000     1.1670 ns         1 F1Z       0.045000
      4 C3           1.1570    -0.0000     2.4360 c3         1 F1Z      -0.181000
      5 C2           2.1360     0.0000     3.5810 c3         1 F1Z       0.499000
      6 O1           3.3240     0.0000     3.3620 o          1 F1Z      -0.479000
      7 O            1.6880    -0.0000     4.8470 os         1 F1Z      -0.281000
      8 C1           2.6880    -0.0000     5.9000 c3         1 F1Z       0.089000
      9 C            1.9930    -0.0000     7.2630 c3         1 F1Z      -0.122000
     10 N1           1.8900    -0.0050    -1.1670 n          1 F1Z       0.061000
     11 C5           3.3550    -0.0050    -1.1660 c3         1 F1Z      -0.216000
     12 C6           3.8460    -1.3930    -1.1600 c1         1 F1Z       0.047000
     13 C7           4.2520    -2.4940    -1.1670 c1         1 F1Z      -0.210000
     14 C8           1.1580    -0.0110    -2.4350 c3         1 F1Z      -0.274000
     15 C9           0.9060     1.4070    -2.8780 ca         1 F1Z      -0.053000
     16 C14          1.8300     2.0550    -3.6780 ca         1 F1Z      -0.089000
     17 C13          1.6020     3.3540    -4.0860 ca         1 F1Z      -0.138500
     18 C12          0.4450     4.0120    -3.6890 ca         1 F1Z      -0.056000
     19 N2           0.2150     5.3290    -4.0930 nv         1 F1Z       0.002000
     20 C11         -0.4800     3.3600    -2.8840 ca         1 F1Z      -0.138500
     21 C10         -0.2490     2.0570    -2.4850 ca         1 F1Z      -0.089000
     22 H1           2.6850    -0.5960     1.2860 hn         1 F1Z       0.121000
     23 H2           1.6320     0.6860     3.1270 DU         1 F1Z       0.010000
     24 H3           0.1340     0.3120     2.2630 h1         1 F1Z       0.174000
     25 H4           3.2540     0.9230     5.8610 h1         1 F1Z       0.048500
     26 H5           3.3580    -0.8400     5.7630 h1         1 F1Z       0.048500
     27 H6           1.3910    -0.8950     7.3620 hc         1 F1Z       0.049333
     28 H7           1.3580     0.8730     7.3450 hc         1 F1Z       0.049333
     29 H8           2.7390     0.0210     8.0480 hc         1 F1Z       0.049333
     30 H9           3.7170     0.6330    -1.9640 h1         1 F1Z       0.080000
     31 H10          3.7170    -1.0150    -1.3200 h1         1 F1Z       0.080000
     32 H11          4.6090    -3.5170    -1.1720 ha         1 F1Z       0.206000
     33 H12          0.1360     0.2830    -2.2270 h1         1 F1Z       0.148500
     34 H13          0.8290    -1.0290    -2.6020 h1         1 F1Z       0.148500
     35 H14          2.6070     1.3380    -3.9130 ha         1 F1Z       0.127000
     36 H15          2.2250     3.9640    -4.7290 ha         1 F1Z       0.108500
     37 H16          0.4590     5.6860    -4.9960 hn         1 F1Z       0.068500
     38 H17         -0.0580     5.9020    -3.3190 hn         1 F1Z       0.068500
     39 H18         -1.2930     3.8760    -2.3870 ha         1 F1Z       0.108500
     40 H19         -0.5650     2.0680    -1.4490 ha         1 F1Z       0.127000
@<TRIPOS>BOND
     1     1     2 1   
     2     2     3 1   
     3     2    10 1   
     4     3     4 1   
     5     3    22 1   
     6     4     5 1   
     7     4    23 1   
     8     4    24 1   
     9     5     6 1   
    10     5     7 1   
    11     5    23 1   
    12     7     8 1   
    13     8     9 1   
    14     8    25 1   
    15     8    26 1   
    16     9    27 1   
    17     9    28 1   
    18     9    29 1   
    19    10    11 1   
    20    10    14 1   
    21    11    12 1   
    22    11    30 1   
    23    11    31 1   
    24    12    13 1   
    25    13    32 1   
    26    14    15 1   
    27    14    33 1   
    28    14    34 1   
    29    15    16 1   
    30    15    21 1   
    31    16    17 1   
    32    16    35 1   
    33    17    18 1   
    34    17    36 1   
    35    18    19 1   
    36    18    20 1   
    37    19    37 1   
    38    19    38 1   
    39    20    21 1   
    40    20    39 1   
    41    21    40 1   
@<TRIPOS>SUBSTRUCTURE
     1 F1Z         1 TEMP              0 ****  ****    0 ROOT
