@<TRIPOS>MOLECULE
molecule
   40    40     1     0     0
SMALL
bcc


@<TRIPOS>ATOM
      1 O2           0.0000     0.0000     0.0000 o          1 F1Z      -0.670100
      2 C4           1.2150     0.0000     0.0000 c          1 F1Z       0.796100
      3 N            1.8890     0.0000     1.1670 ns         1 F1Z      -0.503900
      4 C3           1.1570    -0.0000     2.4360 c3         1 F1Z      -0.059000
      5 C2           2.1360     0.0000     3.5810 c          1 F1Z       0.730100
      6 O1           3.3240     0.0000     3.3620 o          1 F1Z      -0.614000
      7 O            1.6880    -0.0000     4.8470 os         1 F1Z      -0.458900
      8 C1           2.6880    -0.0000     5.9000 c3         1 F1Z       0.159400
      9 C            1.9930    -0.0000     7.2630 c3         1 F1Z      -0.096100
     10 N1           1.8900    -0.0050    -1.1670 n          1 F1Z      -0.442800
     11 C5           3.3550    -0.0050    -1.1660 c3         1 F1Z      -0.095900
     12 C6           3.8460    -1.3930    -1.1600 c1         1 F1Z      -0.080100
     13 C7           4.2520    -2.4940    -1.1670 c1         1 F1Z      -0.141500
     14 C8           1.1580    -0.0110    -2.4350 c3         1 F1Z      -0.056700
     15 C9           0.9060     1.4070    -2.8780 ca         1 F1Z      -0.066300
     16 C14          1.8300     2.0550    -3.6780 ca         1 F1Z      -0.107500
     17 C13          1.6020     3.3540    -4.0860 ca         1 F1Z      -0.172500
     18 C12          0.4450     4.0120    -3.6890 ca         1 F1Z       0.171600
     19 N2           0.2150     5.3290    -4.0930 nv         1 F1Z      -0.945200
     20 C11         -0.4800     3.3600    -2.8840 ca         1 F1Z      -0.172500
     21 C10         -0.2490     2.0570    -2.4850 ca         1 F1Z      -0.107500
     22 H1           2.6850    -0.5960     1.2860 hn         1 F1Z       0.335500
     23 H2           1.6320     0.6860     3.1270 h1         1 F1Z       0.097200
     24 H3           0.1340     0.3120     2.2630 h1         1 F1Z       0.097200
     25 H4           3.2540     0.9230     5.8610 h1         1 F1Z       0.050200
     26 H5           3.3580    -0.8400     5.7630 h1         1 F1Z       0.050200
     27 H6           1.3910    -0.8950     7.3620 hc         1 F1Z       0.047700
     28 H7           1.3580     0.8730     7.3450 hc         1 F1Z       0.047700
     29 H8           2.7390     0.0210     8.0480 hc         1 F1Z       0.047700
     30 H9           3.7170     0.6330    -1.9640 h1         1 F1Z       0.148200
     31 H10          3.7170    -1.0150    -1.3200 h1         1 F1Z       0.148200
     32 H11          4.6090    -3.5170    -1.1720 ha         1 F1Z       0.174500
     33 H12          0.1360     0.2830    -2.2270 h1         1 F1Z       0.125200
     34 H13          0.8290    -1.0290    -2.6020 h1         1 F1Z       0.125200
     35 H14          2.6070     1.3380    -3.9130 ha         1 F1Z       0.151500
     36 H15          2.2250     3.9640    -4.7290 ha         1 F1Z       0.134000
     37 H16          0.4590     5.6860    -4.9960 hn         1 F1Z       0.433300
     38 H17         -0.0580     5.9020    -3.3190 hn         1 F1Z       0.433300
     39 H18         -1.2930     3.8760    -2.3870 ha         1 F1Z       0.134000
     40 H19         -0.5650     2.0680    -1.4490 ha         1 F1Z       0.151500
@<TRIPOS>BOND
     1    19    18 1
     2    18    20 ar
     3    18    17 ar
     4    20    21 ar
     5    17    16 ar
     6    21    15 ar
     7    16    15 ar
     8    15    14 1
     9    14    10 1
    10     1     2 2
    11    10     2 1
    12    10    11 1
    13     2     3 1
    14     8     9 1
    15     8     7 1
    16     6     5 2
    17    11    12 1
    18     7     5 1
    19     5     4 1
    20     3     4 1
    21    12    13 3
    22     3    22 1
    23     4    23 1
    24     4    24 1
    25     8    25 1
    26     8    26 1
    27     9    27 1
    28     9    28 1
    29     9    29 1
    30    11    30 1
    31    11    31 1
    32    13    32 1
    33    14    33 1
    34    14    34 1
    35    16    35 1
    36    17    36 1
    37    19    37 1
    38    19    38 1
    39    20    39 1
    40    21    40 1
@<TRIPOS>SUBSTRUCTURE
     1 F1Z         1 TEMP              0 ****  ****    0 ROOT
