@<TRIPOS>MOLECULE
F20
   68    71     1     0     0
SMALL
bcc


@<TRIPOS>ATOM
      1 C1           0.0000     0.0000     0.0000 c3         1 F20       0.045400
      2 C2           1.5510     0.0000     0.0000 c3         1 F20      -0.079400
      3 C3           2.0300     0.0000     1.4210 c          1 F20       0.625500
      4 N4           1.1780     0.3870     2.3830 ns         1 F20      -0.280300
      5 S5          -0.2920     0.7390     1.6590 s6         1 F20       0.927600
      6 O6          -0.3060     2.1590     1.6180 o          1 F20      -0.549800
      7 O7          -1.2230    -0.0150     2.4240 o          1 F20      -0.549800
      8 O9           3.1620    -0.3400     1.6940 o          1 F20      -0.620500
      9 C11         -0.5520    -1.3990    -0.0850 ca         1 F20      -0.041300
     10 C12         -1.4350    -1.7340    -1.0960 ca         1 F20      -0.066000
     11 C13         -1.9410    -3.0170    -1.1740 ca         1 F20      -0.075000
     12 C14         -1.5630    -3.9680    -0.2440 ca         1 F20      -0.136300
     13 C15         -0.6840    -3.6320     0.7690 ca         1 F20      -0.075000
     14 C16         -0.1750    -2.3490     0.8450 ca         1 F20      -0.066000
     15 C21         -2.1140    -5.3680    -0.3310 c3         1 F20       0.034900
     16 C22         -1.1940    -6.2260    -1.2000 c3         1 F20      -0.047300
     17 C25         -1.6770    -7.6530    -1.1880 c          1 F20       0.291100
     18 O26         -2.0010    -8.1930    -2.2240 o          1 F20      -0.390100
     19 N27         -1.7480    -8.3290    -0.0240 nz         1 F20       0.196600
     20 N45         -1.2090    -5.7180    -2.5750 ns         1 F20      -0.177900
     21 C47         -0.1580    -5.9450    -3.3880 c          1 F20       0.585100
     22 C48         -0.1730    -5.4230    -4.8020 c3         1 F20      -0.039300
     23 O49          0.7990    -6.5690    -2.9830 o          1 F20      -0.641100
     24 N51          1.0730    -5.7980    -5.4750 ns         1 F20      -0.197900
     25 C4          -1.3620    -6.0250    -5.5560 c3         1 F20       0.027900
     26 C5          -1.4490    -5.4100    -6.9290 ca         1 F20      -0.100300
     27 C30         -0.7780    -5.9900    -7.9890 ca         1 F20      -0.088500
     28 C31         -0.8590    -5.4260    -9.2490 ca         1 F20      -0.083000
     29 C6          -1.6090    -4.2830    -9.4480 ca         1 F20      -0.081000
     30 C33         -2.2800    -3.7040    -8.3880 ca         1 F20      -0.083000
     31 C34         -2.2040    -4.2690    -7.1290 ca         1 F20      -0.088500
     32 C67          1.5250    -5.0670    -6.5120 c          1 F20       0.605700
     33 O70          0.9000    -4.0950    -6.8900 o          1 F20      -0.636100
     34 C71          2.7830    -5.4460    -7.1910 ca         1 F20      -0.167600
     35 C74          3.2550    -4.6900    -8.2650 ca         1 F20      -0.058000
     36 C75          4.4290    -5.0490    -8.8940 ca         1 F20      -0.107500
     37 C76          5.1390    -6.1550    -8.4620 ca         1 F20      -0.066000
     38 C77          4.6760    -6.9090    -7.3980 ca         1 F20      -0.107500
     39 C78          3.5060    -6.5570    -6.7560 ca         1 F20      -0.058000
     40 H1          -0.3910     0.6360    -0.7850 h1         1 F20       0.098700
     41 H2C1         1.9140    -0.8870    -0.5050 hc         1 F20       0.065200
     42 H2C2         1.9140     0.8870    -0.5050 hc         1 F20       0.065200
     43 H4           1.3850     0.4540     3.3600 hn         1 F20       0.270500
     44 H12         -1.7300    -0.9890    -1.8250 ha         1 F20       0.122500
     45 H13         -2.6310    -3.2800    -1.9670 ha         1 F20       0.102500
     46 H15         -0.3890    -4.3760     1.4990 ha         1 F20       0.102500
     47 H16          0.5130    -2.0870     1.6390 ha         1 F20       0.122500
     48 H211        -3.1040    -5.3390    -0.7710 hc         1 F20       0.022700
     49 H212        -2.1730    -5.7950     0.6630 hc         1 F20       0.022700
     50 H22         -0.1850    -6.1820    -0.8100 h1         1 F20       0.096700
     51 H271        -2.6300    -8.1490     0.4130 hn         1 F20       0.248467
     52 H272        -1.0090    -8.0310     0.5810 hn         1 F20       0.248467
     53 H45         -2.0030    -5.2120    -2.9130 hn         1 F20       0.208500
     54 H48         -0.2650    -4.3440    -4.7870 h1         1 F20       0.077700
     55 H51          1.6040    -6.5790    -5.1440 hn         1 F20       0.203500
     56 H4C1        -1.2260    -7.0960    -5.6480 hc         1 F20       0.016700
     57 H4C2        -2.2750    -5.8220    -5.0110 hc         1 F20       0.016700
     58 H30         -0.1900    -6.8870    -7.8340 ha         1 F20       0.095000
     59 H31         -0.3330    -5.8800   -10.0800 ha         1 F20       0.105000
     60 H6          -1.6700    -3.8400   -10.4350 ha         1 F20       0.107000
     61 H33         -2.8700    -2.8090    -8.5440 ha         1 F20       0.105000
     62 H34         -2.7300    -3.8150    -6.2980 ha         1 F20       0.095000
     63 H74          2.7000    -3.8240    -8.6050 ha         1 F20       0.113000
     64 H75          4.7960    -4.4630    -9.7280 ha         1 F20       0.110500
     65 H76          6.0590    -6.4340    -8.9600 ha         1 F20       0.108000
     66 H77          5.2380    -7.7720    -7.0630 ha         1 F20       0.110500
     67 H78          3.1450    -7.1480    -5.9230 ha         1 F20       0.113000
     68 H273        -1.6630    -9.3110    -0.2030 hn         1 F20       0.248467
@<TRIPOS>BOND
     1     1     2 1   
     2     1     5 1   
     3     1     9 1   
     4     1    40 1   
     5     2     3 1   
     6     2    41 1   
     7     2    42 1   
     8     3     4 1   
     9     3     8 2   
    10     4     5 1   
    11     4    43 1   
    12     5     6 2   
    13     5     7 2   
    14     9    10 ar  
    15     9    14 ar  
    16    10    11 ar  
    17    10    44 1   
    18    11    12 ar  
    19    11    45 1   
    20    12    13 ar  
    21    12    15 1   
    22    13    14 ar  
    23    13    46 1   
    24    14    47 1   
    25    15    16 1   
    26    15    48 1   
    27    15    49 1   
    28    16    17 1   
    29    16    20 1   
    30    16    50 1   
    31    17    18 2   
    32    17    19 1   
    33    19    51 1   
    34    19    52 1   
    35    19    68 1   
    36    20    21 1   
    37    20    53 1   
    38    21    22 1   
    39    21    23 2   
    40    22    24 1   
    41    22    25 1   
    42    22    54 1   
    43    24    32 1   
    44    24    55 1   
    45    25    26 1   
    46    25    56 1   
    47    25    57 1   
    48    26    27 ar  
    49    26    31 ar  
    50    27    28 ar  
    51    27    58 1   
    52    28    29 ar  
    53    28    59 1   
    54    29    30 ar  
    55    29    60 1   
    56    30    31 ar  
    57    30    61 1   
    58    31    62 1   
    59    32    33 2   
    60    32    34 1   
    61    34    35 ar  
    62    34    39 ar  
    63    35    36 ar  
    64    35    63 1   
    65    36    37 ar  
    66    36    64 1   
    67    37    38 ar  
    68    37    65 1   
    69    38    39 ar  
    70    38    66 1   
    71    39    67 1   
@<TRIPOS>SUBSTRUCTURE
     1 F20         1 TEMP              0 ****  ****    0 ROOT
