@<TRIPOS>MOLECULE
F21
   40    42     1     0     0
SMALL
bcc


@<TRIPOS>ATOM
      1 C12        -0.0640    0.0790    0.0290 c3        1 F21      0.225800
      2 C13         1.4490   -0.0840    0.1060 c3        1 F21     -0.032300
      3 S2          2.0620    0.0210    1.7590 ss        1 F21     -0.288200
      4 C15         1.2270    1.4550    2.3620 c3        1 F21     -0.032300
      5 C14        -0.2610    1.4480    2.0370 c3        1 F21      0.225800
      6 N1         -0.5580    1.2890    0.6360 n3        1 F21     -0.817500
      7 S1         -1.3970    2.4060   -0.2080 sy        1 F21      1.509200
      8 O2         -1.2570    3.6680    0.4090 o         1 F21     -0.650800
      9 O1         -1.0550    2.3210   -1.5760 o         1 F21     -0.650800
     10 C7         -2.9980    1.9020   -0.0310 ca        1 F21     -0.379500
     11 C8         -3.5860    1.0450   -0.9660 ca        1 F21     -0.012000
     12 C9         -4.9180    0.6470   -0.8460 ca        1 F21     -0.103300
     13 C1         -5.5030   -0.2540   -1.8930 c3        1 F21      0.210100
     14 N2         -6.7890   -0.8240   -1.5420 n3        1 F21     -0.817200
     15 C3         -7.6880    0.1300   -0.9060 c3        1 F21      0.141500
     16 C11        -9.0590   -0.5180   -0.5850 c3        1 F21      0.156900
     17 F1         -9.7320   -0.8730   -1.7370 f         1 F21     -0.245300
     18 C4         -7.0970    0.6740    0.4020 c3        1 F21     -0.043100
     19 C10        -5.6860    1.1080    0.2350 ca        1 F21     -0.000300
     20 C5         -5.1060    1.9730    1.1710 ca        1 F21     -0.156000
     21 C6         -3.7800    2.3640    1.0360 ca        1 F21     -0.017000
     22 H121       -0.5460   -0.8100    0.5330 h1        1 F21      0.061950
     23 H122       -0.3680    0.0740   -1.0600 h1        1 F21      0.061950
     24 H131        1.9540    0.6730   -0.5420 h1        1 F21      0.082700
     25 H132        1.7280   -1.1010   -0.2630 h1        1 F21      0.082700
     26 H151        1.3610    1.4460    3.4720 h1        1 F21      0.082700
     27 H152        1.7080    2.3800    1.9600 h1        1 F21      0.082700
     28 H141       -0.7080    2.4250    2.3890 h1        1 F21      0.061950
     29 H142       -0.7500    0.6090    2.6140 h1        1 F21      0.061950
     30 H8         -2.9870    0.6930   -1.8260 ha        1 F21      0.153000
     31 H11        -5.5460    0.3380   -2.8580 h1        1 F21      0.048700
     32 H12        -4.8040   -1.1250   -2.0620 h1        1 F21      0.048700
     33 HN2        -7.2300   -1.2170   -2.3540 hn        1 F21      0.379800
     34 H3         -7.8900    1.0140   -1.5880 h1        1 F21      0.036700
     35 H111       -8.9190   -1.4350    0.0510 h1        1 F21      0.053200
     36 H112       -9.6800    0.2310   -0.0200 h1        1 F21      0.053200
     37 H41        -7.1350   -0.1230    1.1950 hc        1 F21      0.067200
     38 H42        -7.7290    1.5330    0.7500 hc        1 F21      0.067200
     39 H5         -5.7070    2.3460    2.0150 ha        1 F21      0.141000
     40 H6         -3.3340    3.0620    1.7670 ha        1 F21      0.152000
@<TRIPOS>BOND
     1    1    2 1   
     2    1    6 1   
     3    1   22 1   
     4    1   23 1   
     5    2    3 1   
     6    2   24 1   
     7    2   25 1   
     8    3    4 1   
     9    4    5 1   
    10    4   26 1   
    11    4   27 1   
    12    5    6 1   
    13    5   28 1   
    14    5   29 1   
    15    6    7 1   
    16    7    8 2   
    17    7    9 2   
    18    7   10 1   
    19   10   11 ar  
    20   10   21 ar  
    21   11   12 ar  
    22   11   30 1   
    23   12   13 1   
    24   12   19 ar  
    25   13   14 1   
    26   13   31 1   
    27   13   32 1   
    28   14   15 1   
    29   14   33 1   
    30   15   16 1   
    31   15   18 1   
    32   15   34 1   
    33   16   17 1   
    34   16   35 1   
    35   16   36 1   
    36   18   19 1   
    37   18   37 1   
    38   18   38 1   
    39   19   20 ar  
    40   20   21 ar  
    41   20   39 1   
    42   21   40 1   
@<TRIPOS>SUBSTRUCTURE
     1 F21         1 TEMP              0 ****  ****    0 ROOT
