@<TRIPOS>MOLECULE
molecule
   55    54     1     0     0
SMALL
bcc


@<TRIPOS>ATOM
      1 C1           0.0000     0.0000     0.0000 c          1 F22       0.888600
      2 O1           1.3420     0.0000     0.0000 o          1 F22      -0.840300
      3 O2          -0.6040     0.0000     1.0470 o          1 F22      -0.840300
      4 C2          -0.7540     0.0060    -1.3040 c3         1 F22      -0.202400
      5 C3          -2.2580     0.0050    -1.0250 c3         1 F22      -0.110200
      6 C4          -3.0110     0.0110    -2.3300 c2         1 F22      -0.314200
      7 C5          -3.9410    -0.8850    -2.5540 c2         1 F22      -0.175200
      8 C6          -4.3690    -1.8170    -1.4510 c3         1 F22      -0.235000
      9 C7          -5.8650    -1.7440    -1.2840 c2         1 F22      -0.111200
     10 C8          -6.5810    -2.8420    -1.2970 c2         1 F22      -0.324200
     11 C9          -5.8990    -4.1850    -1.3150 c3         1 F22      -0.039000
     12 C10         -6.4230    -5.0300    -0.1820 c2         1 F22      -0.205200
     13 C11         -6.8900    -6.2300    -0.4210 c2         1 F22      -0.202200
     14 C12         -6.7470    -6.8340    -1.7950 c3         1 F22       0.272000
     15 C13         -6.0990    -8.1900    -1.6830 c2         1 F22      -0.175200
     16 C14         -6.6750    -9.2370    -2.2190 c2         1 F22      -0.237200
     17 C15         -7.8960    -9.0650    -3.0860 c3         1 F22       0.140000
     18 C16         -7.6790    -9.7650    -4.4020 c2         1 F22      -0.254200
     19 C17         -8.5230   -10.6850    -4.8010 c2         1 F22      -0.273200
     20 C18         -9.6040   -11.1700    -3.8700 c3         1 F22       0.190000
     21 C19        -10.9540   -10.8940    -4.4800 c2         1 F22      -0.222200
     22 C20        -11.8330   -11.8580    -4.5900 c2         1 F22      -0.222200
     23 C21        -11.5610   -13.2010    -3.9630 c3         1 F22       0.051800
     24 C22        -12.7340   -13.5910    -3.0610 c3         1 F22      -0.107100
     25 H2C1        -0.4920     0.8930    -1.8680 hc         1 F22       0.047200
     26 H2C2        -0.4920    -0.8760    -1.8770 hc         1 F22       0.047200
     27 H3C1        -2.5200    -0.8820    -0.4610 hc         1 F22       0.085700
     28 H3C2        -2.5190     0.8870    -0.4530 hc         1 F22       0.085700
     29 H4          -2.2940    -0.7220    -1.9820 ha         1 F22       0.311000
     30 H5          -3.3890    -1.7920    -2.3410 ha         1 F22       0.174000
     31 H6C1        -4.0830    -2.8310    -1.7040 hc         1 F22       0.049700
     32 H6C2        -3.8880    -1.5260    -0.5250 hc         1 F22       0.049700
     33 H7          -5.2170    -1.9460    -0.4400 ha         1 F22       0.228000
     34 H8          -6.0040    -3.3050    -0.5050 ha         1 F22       0.234000
     35 H9C1        -6.1000    -4.6800    -2.2570 hc         1 F22       0.071200
     36 H9C2        -4.8300    -4.0490    -1.1990 hc         1 F22       0.071200
     37 H10         -5.4050    -5.1430    -0.5370 ha         1 F22       0.094000
     38 H11         -7.6060    -6.0090    -1.2040 ha         1 F22       0.017000
     39 H121        -7.7250    -6.9370    -2.2480 hc         1 F22       0.063200
     40 H122        -6.1300    -6.1890    -2.4100 hc         1 F22       0.063200
     41 H13         -5.9600    -7.5740    -2.5630 ha         1 F22       0.025000
     42 H14         -7.6640    -9.1570    -1.7840 ha         1 F22       0.073000
     43 H15         -8.0680    -8.0100    -3.2620 hc         1 F22       0.050200
     44 H16         -7.3300   -10.2050    -3.4760 ha         1 F22       0.092000
     45 H171        -9.4590   -10.1470    -4.7090 ha         1 F22       0.100000
     46 H172        -8.7570    -9.4920    -2.5860 hc         1 F22       0.050200
     47 H181        -9.4920   -12.2350    -3.7100 hc         1 F22       0.057200
     48 H182        -9.5240   -10.6520    -2.9220 hc         1 F22       0.057200
     49 H19        -10.8120   -10.8840    -3.4070 ha         1 F22       0.033000
     50 H20        -11.2380   -12.6050    -5.1010 ha         1 F22       0.097000
     51 H211       -10.6540   -13.1470    -3.3730 hc         1 F22       0.050200
     52 H212       -11.4420   -13.9450    -4.7410 hc         1 F22       0.050200
     53 H221       -12.5630   -14.5800    -2.6540 hc         1 F22       0.042033
     54 H222       -12.8180   -12.8770    -2.2510 hc         1 F22       0.042033
     55 H223       -13.6500   -13.5910    -3.6390 hc         1 F22       0.042033
@<TRIPOS>BOND
     1     1     2 1
     2     1     3 1
     3     1     4 1
     4     4     5 1
     5     5     6 1
     6     6     7 2
     7     7     8 1
     8     8     9 1
     9     9    10 2
    10    10    11 1
    11    11    12 1
    12    12    13 2
    13    13    14 1
    14    14    15 1
    15    15    16 2
    16    16    17 1
    17    17    18 1
    18    18    19 2
    19    19    20 1
    20    20    21 1
    21    21    22 2
    22    22    23 1
    23    23    24 1
    24     4    25 1
    25     4    26 1
    26     5    27 1
    27     5    28 1
    28     6    29 1
    29     7    30 1
    30     8    31 1
    31     8    32 1
    32     9    33 1
    33    10    34 1
    34    11    35 1
    35    11    36 1
    36    12    37 1
    37    13    38 1
    38    14    39 1
    39    14    40 1
    40    15    41 1
    41    16    42 1
    42    17    43 1
    43    18    44 1
    44    19    45 1
    45    17    46 1
    46    20    47 1
    47    20    48 1
    48    21    49 1
    49    22    50 1
    50    23    51 1
    51    23    52 1
    52    24    53 1
    53    24    54 1
    54    24    55 1
@<TRIPOS>SUBSTRUCTURE
     1 F22         1 TEMP              0 ****  ****    0 ROOT
