@<TRIPOS>MOLECULE
F22
   55    54     1     0     0
SMALL
bcc


@<TRIPOS>ATOM
      1 C1         -6.8790   -5.5780   -3.0180 c         1 F22      0.914600
      2 O1         -7.3900   -6.2340   -3.9710 o         1 F22     -0.862300
      3 O2         -6.5290   -6.1170   -1.9240 o         1 F22     -0.862300
      4 C2         -6.7040   -4.0660   -3.1910 c3        1 F22     -0.182400
      5 C3         -5.3640   -3.6060   -2.6570 c3        1 F22     -0.051200
      6 C4         -5.3090   -2.1330   -2.5060 c2        1 F22     -0.133200
      7 C5         -4.9670   -1.4600   -1.4030 c2        1 F22     -0.204200
      8 C6         -4.5660   -2.0630   -0.1050 c3        1 F22     -0.002000
      9 C7         -5.7120   -2.1250    0.8370 c2        1 F22     -0.191200
     10 C8         -6.2820   -3.2330    1.3190 c2        1 F22     -0.138200
     11 C9         -5.9050   -4.6290    0.9980 c3        1 F22     -0.048000
     12 C10        -6.2670   -5.5750    2.0830 c2        1 F22     -0.188200
     13 C11        -6.4740   -6.8830    1.8990 c2        1 F22     -0.154200
     14 C12        -6.4120   -7.5540    0.5810 c3        1 F22     -0.045000
     15 C13        -6.3660   -9.0320    0.6700 c2        1 F22     -0.169200
     16 C14        -6.4830   -9.8520   -0.3800 c2        1 F22     -0.170200
     17 C15        -6.7190   -9.4180   -1.7770 c3        1 F22     -0.051000
     18 C16        -6.0320  -10.2860   -2.7620 c2        1 F22     -0.168200
     19 C17        -6.2760  -10.2640   -4.0770 c2        1 F22     -0.173200
     20 C18        -7.2740   -9.3730   -4.7110 c3        1 F22     -0.054000
     21 C19        -7.3770   -9.5440   -6.1790 c2        1 F22     -0.157200
     22 C20        -8.1720   -8.7990   -6.9550 c2        1 F22     -0.185200
     23 C21        -9.0390   -7.7150   -6.4390 c3        1 F22     -0.075200
     24 C22        -9.6840   -6.9160   -7.5420 c3        1 F22     -0.078100
     25 H2C1       -6.8080   -3.7980   -4.2710 hc        1 F22      0.029700
     26 H2C2       -7.5320   -3.5640   -2.6290 hc        1 F22      0.029700
     27 H3C1       -4.5520   -3.9270   -3.3640 hc        1 F22      0.055200
     28 H3C2       -5.1800   -4.1310   -1.6790 hc        1 F22      0.055200
     29 H4         -5.5930   -1.5730   -3.4150 ha        1 F22      0.101000
     30 H5         -4.9820   -0.3580   -1.4060 ha        1 F22      0.095000
     31 H6C1       -3.7580   -1.4280    0.3560 hc        1 F22      0.041200
     32 H6C2       -4.1240   -3.0830   -0.2670 hc        1 F22      0.041200
     33 H7         -6.1100   -1.1370    1.1260 ha        1 F22      0.100000
     34 H8         -7.1390   -3.1350    2.0090 ha        1 F22      0.104000
     35 H9C1       -4.7970   -4.7110    0.8130 hc        1 F22      0.093200
     36 H9C2       -6.4040   -4.9400    0.0250 hc        1 F22      0.093200
     37 H10        -6.3500   -5.1390    3.0920 ha        1 F22      0.096000
     38 H11        -6.7250   -7.5240    2.7600 ha        1 F22      0.096000
     39 H121       -5.5160   -7.1870   -0.0030 hc        1 F22      0.104200
     40 H122       -7.2940   -7.2280   -0.0480 hc        1 F22      0.104200
     41 H13        -6.2130   -9.4530    1.6780 ha        1 F22      0.092000
     42 H14        -6.4180  -10.9440   -0.2300 ha        1 F22      0.092000
     43 H15        -7.8300   -9.4320   -1.9720 hc        1 F22      0.099700
     44 H16        -5.2630  -10.9640   -2.3550 ha        1 F22      0.097000
     45 H171       -5.7070  -10.9240   -4.7530 ha        1 F22      0.095000
     46 H172       -6.4030   -8.3380   -1.9360 hc        1 F22      0.099700
     47 H181       -7.0270   -8.2890   -4.4630 hc        1 F22      0.100700
     48 H182       -8.2870   -9.5530   -4.2480 hc        1 F22      0.100700
     49 H19        -6.7480  -10.3300   -6.6280 ha        1 F22      0.096000
     50 H20        -8.2030   -8.9670   -8.0430 ha        1 F22      0.094000
     51 H211       -8.4310   -7.0320   -5.7710 hc        1 F22      0.083200
     52 H212       -9.8350   -8.1630   -5.7830 hc        1 F22      0.083200
     53 H221      -10.3220   -6.1100   -7.1070 hc        1 F22      0.018700
     54 H222      -10.3240   -7.5650   -8.1870 hc        1 F22      0.018700
     55 H223       -8.9070   -6.4390   -8.1870 hc        1 F22      0.018700
@<TRIPOS>BOND
     1    1    2 1   
     2    1    3 1   
     3    1    4 1   
     4    4    5 1   
     5    4   25 1   
     6    4   26 1   
     7    5    6 1   
     8    5   27 1   
     9    5   28 1   
    10    6    7 2   
    11    6   29 1   
    12    7    8 1   
    13    7   30 1   
    14    8    9 1   
    15    8   31 1   
    16    8   32 1   
    17    9   10 2   
    18    9   33 1   
    19   10   11 1   
    20   10   34 1   
    21   11   12 1   
    22   11   35 1   
    23   11   36 1   
    24   12   13 2   
    25   12   37 1   
    26   13   14 1   
    27   13   38 1   
    28   14   15 1   
    29   14   39 1   
    30   14   40 1   
    31   15   16 2   
    32   15   41 1   
    33   16   17 1   
    34   16   42 1   
    35   17   18 1   
    36   17   43 1   
    37   17   46 1   
    38   18   19 2   
    39   18   44 1   
    40   19   20 1   
    41   19   45 1   
    42   20   21 1   
    43   20   47 1   
    44   20   48 1   
    45   21   22 2   
    46   21   49 1   
    47   22   23 1   
    48   22   50 1   
    49   23   24 1   
    50   23   51 1   
    51   23   52 1   
    52   24   53 1   
    53   24   54 1   
    54   24   55 1   
@<TRIPOS>SUBSTRUCTURE
     1 F22         1 TEMP              0 ****  ****    0 ROOT
