@<TRIPOS>MOLECULE
molecule
   70    69     1     0     0
SMALL
bcc


@<TRIPOS>ATOM
      1 O1           0.0000     0.0000     0.0000 o          1 F23      -0.858300
      2 O2           1.8810    -0.0020    -1.1620 o          1 F23      -0.858300
      3 C1           1.2090     0.0000     0.0000 c          1 F23       0.890600
      4 C2           1.9620     0.0000     1.3060 c3         1 F23      -0.183400
      5 C3           0.9670     0.0010     2.4680 c3         1 F23      -0.063400
      6 C4           1.7310     0.0020     3.7930 c3         1 F23      -0.088400
      7 C5           0.7370     0.0030     4.9560 c3         1 F23      -0.081400
      8 C6           1.5020     0.0030     6.2820 c3         1 F23      -0.083400
      9 C7           0.5070     0.0050     7.4430 c3         1 F23      -0.082400
     10 C8           1.2710     0.0050     8.7690 c3         1 F23      -0.082400
     11 C9           0.2770     0.0070     9.9320 c3         1 F23      -0.082400
     12 C10          1.0420     0.0070    11.2570 c3         1 F23      -0.082400
     13 C11          0.0460     0.0090    12.4190 c3         1 F23      -0.082400
     14 C12          0.8110     0.0100    13.7450 c3         1 F23      -0.082400
     15 C13         -0.1830     0.0110    14.9080 c3         1 F23      -0.082400
     16 C14          0.5810     0.0110    16.2330 c3         1 F23      -0.082400
     17 C15         -0.4140     0.0130    17.3950 c3         1 F23      -0.082400
     18 C16          0.3510     0.0130    18.7200 c3         1 F23      -0.082400
     19 C17         -0.6430     0.0140    19.8830 c3         1 F23      -0.082400
     20 C18          0.1210     0.0150    21.2090 c3         1 F23      -0.081400
     21 C19         -0.8740     0.0160    22.3710 c3         1 F23      -0.081400
     22 C20         -0.1090     0.0170    23.6960 c3         1 F23      -0.082400
     23 C21         -1.1030     0.0180    24.8590 c3         1 F23      -0.082400
     24 C22         -0.3390     0.0180    26.1850 c3         1 F23      -0.084400
     25 C23         -1.3340     0.0200    27.3460 c3         1 F23      -0.092100
     26 H2A          2.5840    -0.8850     1.3640 hc         1 F23       0.026700
     27 H2B          2.5850     0.8840     1.3630 hc         1 F23       0.026700
     28 H3A          0.3440    -0.8830     2.4120 hc         1 F23       0.044700
     29 H3B          0.3450     0.8860     2.4100 hc         1 F23       0.044700
     30 H4A          2.3540    -0.8830     3.8520 hc         1 F23       0.028700
     31 H4B          2.3540     0.8860     3.8500 hc         1 F23       0.028700
     32 H5A          0.1130    -0.8810     4.8990 hc         1 F23       0.038700
     33 H5B          0.1150     0.8880     4.8980 hc         1 F23       0.038700
     34 H6A          2.1230    -0.8820     6.3400 hc         1 F23       0.036700
     35 H6B          2.1260     0.8870     6.3390 hc         1 F23       0.036700
     36 H7A         -0.1140     0.8910     7.3850 hc         1 F23       0.039700
     37 H7B         -0.1170    -0.8780     7.3860 hc         1 F23       0.039700
     38 H8A          1.8930    -0.8800     8.8270 hc         1 F23       0.038700
     39 H8B          1.8950     0.8890     8.8270 hc         1 F23       0.038700
     40 H9A         -0.3460     0.8910     9.8740 hc         1 F23       0.039700
     41 H9B         -0.3460    -0.8780     9.8750 hc         1 F23       0.039700
     42 H101         1.6650     0.8920    11.3140 hc         1 F23       0.039700
     43 H102         1.6640    -0.8770    11.3150 hc         1 F23       0.039700
     44 H111        -0.5760     0.8930    12.3610 hc         1 F23       0.040700
     45 H112        -0.5770    -0.8760    12.3620 hc         1 F23       0.040700
     46 H121         1.4340     0.8940    13.8020 hc         1 F23       0.040200
     47 H122         1.4340    -0.8750    13.8030 hc         1 F23       0.040200
     48 H131        -0.8050     0.8960    14.8500 hc         1 F23       0.040700
     49 H132        -0.8070    -0.8730    14.8510 hc         1 F23       0.040700
     50 H141         1.2020    -0.8750    16.2910 hc         1 F23       0.040700
     51 H142         1.2050     0.8940    16.2900 hc         1 F23       0.040700
     52 H151        -1.0350     0.8980    17.3370 hc         1 F23       0.040700
     53 H152        -1.0380    -0.8710    17.3390 hc         1 F23       0.040700
     54 H161         0.9750     0.8970    18.7770 hc         1 F23       0.040700
     55 H162         0.9730    -0.8720    18.7780 hc         1 F23       0.040700
     56 H171        -1.2660     0.8990    19.8240 hc         1 F23       0.040700
     57 H172        -1.2670    -0.8700    19.8260 hc         1 F23       0.040700
     58 H181         0.7440     0.8990    21.2660 hc         1 F23       0.040700
     59 H182         0.7430    -0.8700    21.2670 hc         1 F23       0.040700
     60 H191        -1.4960     0.9010    22.3130 hc         1 F23       0.040700
     61 H192        -1.4970    -0.8680    22.3150 hc         1 F23       0.040700
     62 H201         0.5140    -0.8680    23.7540 hc         1 F23       0.040700
     63 H202         0.5140     0.9010    23.7530 hc         1 F23       0.040700
     64 H211        -1.7270    -0.8660    24.8020 hc         1 F23       0.040700
     65 H212        -1.7260     0.9030    24.8010 hc         1 F23       0.040700
     66 H221         0.2820    -0.8670    26.2430 hc         1 F23       0.039700
     67 H222         0.2850     0.9020    26.2420 hc         1 F23       0.039700
     68 H231        -1.9580    -0.8630    27.2890 hc         1 F23       0.032033
     69 H232        -1.9550     0.9060    27.2880 hc         1 F23       0.032033
     70 H233        -0.7930     0.0200    28.2850 hc         1 F23       0.032033
@<TRIPOS>BOND
     1     1     3 1
     2     2     3 1
     3     3     4 1
     4     4     5 1
     5     4    26 1
     6     4    27 1
     7     5     6 1
     8     5    28 1
     9     5    29 1
    10     6     7 1
    11     6    30 1
    12     6    31 1
    13     7     8 1
    14     7    32 1
    15     7    33 1
    16     8     9 1
    17     8    34 1
    18     8    35 1
    19     9    10 1
    20     9    36 1
    21     9    37 1
    22    10    11 1
    23    10    38 1
    24    10    39 1
    25    11    12 1
    26    11    40 1
    27    11    41 1
    28    12    13 1
    29    12    42 1
    30    12    43 1
    31    13    14 1
    32    13    44 1
    33    13    45 1
    34    14    15 1
    35    14    46 1
    36    14    47 1
    37    15    16 1
    38    15    48 1
    39    15    49 1
    40    16    17 1
    41    16    50 1
    42    16    51 1
    43    17    18 1
    44    17    52 1
    45    17    53 1
    46    18    19 1
    47    18    54 1
    48    18    55 1
    49    19    20 1
    50    19    56 1
    51    19    57 1
    52    20    21 1
    53    20    58 1
    54    20    59 1
    55    21    22 1
    56    21    60 1
    57    21    61 1
    58    22    23 1
    59    22    62 1
    60    22    63 1
    61    23    24 1
    62    23    64 1
    63    23    65 1
    64    24    25 1
    65    24    66 1
    66    24    67 1
    67    25    68 1
    68    25    69 1
    69    25    70 1
@<TRIPOS>SUBSTRUCTURE
     1 F23         1 TEMP              0 ****  ****    0 ROOT
