@<TRIPOS>MOLECULE
F23
   70    69     1     0     0
SMALL
bcc


@<TRIPOS>ATOM
      1 O1          0.2920    1.0200   -0.1290 o         1 F23     -0.853800
      2 O2          1.5170   -0.6300   -1.0000 o         1 F23     -0.853800
      3 C1          1.1880    0.1310   -0.0440 c         1 F23      0.907600
      4 C2          1.9420   -0.0270    1.2880 c3        1 F23     -0.193400
      5 C3          0.9910   -0.0370    2.4600 c3        1 F23     -0.065400
      6 C4          1.7250   -0.0070    3.7840 c3        1 F23     -0.078400
      7 C5          0.7630   -0.0360    4.9520 c3        1 F23     -0.078400
      8 C6          1.4950    0.0020    6.2770 c3        1 F23     -0.078400
      9 C7          0.5310   -0.0260    7.4430 c3        1 F23     -0.079400
     10 C8          1.2640    0.0090    8.7670 c3        1 F23     -0.078400
     11 C9          0.2980   -0.0170    9.9320 c3        1 F23     -0.079400
     12 C10         1.0310    0.0160   11.2560 c3        1 F23     -0.078400
     13 C11         0.0650   -0.0100   12.4210 c3        1 F23     -0.079400
     14 C12         0.7990    0.0210   13.7450 c3        1 F23     -0.078400
     15 C13        -0.1670   -0.0030   14.9100 c3        1 F23     -0.079400
     16 C14         0.5660    0.0250   16.2340 c3        1 F23     -0.079400
     17 C15        -0.4000    0.0020   17.3990 c3        1 F23     -0.079400
     18 C16         0.3340    0.0280   18.7230 c3        1 F23     -0.079400
     19 C17        -0.6330    0.0060   19.8870 c3        1 F23     -0.079400
     20 C18         0.1010    0.0300   21.2110 c3        1 F23     -0.079400
     21 C19        -0.8650    0.0090   22.3760 c3        1 F23     -0.079400
     22 C20        -0.1310    0.0330   23.7000 c3        1 F23     -0.079400
     23 C21        -1.0980    0.0110   24.8640 c3        1 F23     -0.079400
     24 C22        -0.3650    0.0350   26.1890 c3        1 F23     -0.080400
     25 C23        -1.3230    0.0140   27.3520 c3        1 F23     -0.092100
     26 H2A         2.6550    0.8310    1.3820 hc        1 F23      0.018700
     27 H2B         2.5430   -0.9710    1.2650 hc        1 F23      0.018700
     28 H3A         0.3090    0.8500    2.3760 hc        1 F23      0.043700
     29 H3B         0.3470   -0.9540    2.4100 hc        1 F23      0.043700
     30 H4A         2.4210   -0.8850    3.8500 hc        1 F23      0.025700
     31 H4B         2.3570    0.9180    3.8420 hc        1 F23      0.025700
     32 H5A         0.0660    0.8400    4.8830 hc        1 F23      0.036700
     33 H5B         0.1340   -0.9630    4.8970 hc        1 F23      0.036700
     34 H6A         2.1930   -0.8740    6.3450 hc        1 F23      0.034200
     35 H6B         2.1240    0.9290    6.3320 hc        1 F23      0.034200
     36 H7A        -0.1660    0.8500    7.3750 hc        1 F23      0.037200
     37 H7B        -0.0990   -0.9530    7.3870 hc        1 F23      0.037200
     38 H8A         1.9590   -0.8680    8.8350 hc        1 F23      0.036700
     39 H8B         1.8940    0.9360    8.8220 hc        1 F23      0.036700
     40 H9A        -0.3340   -0.9430    9.8760 hc        1 F23      0.038700
     41 H9B        -0.3960    0.8610    9.8650 hc        1 F23      0.038700
     42 H101        1.7250   -0.8630   11.3240 hc        1 F23      0.038200
     43 H102        1.6640    0.9410   11.3120 hc        1 F23      0.038200
     44 H111       -0.5690   -0.9330   12.3640 hc        1 F23      0.038700
     45 H112       -0.6270    0.8710   12.3550 hc        1 F23      0.038700
     46 H121        1.4340    0.9440   13.8020 hc        1 F23      0.038700
     47 H122        1.4910   -0.8600   13.8120 hc        1 F23      0.038700
     48 H131       -0.8580    0.8780   14.8440 hc        1 F23      0.038700
     49 H132       -0.8030   -0.9260   14.8520 hc        1 F23      0.038700
     50 H141        1.2560   -0.8570   16.3000 hc        1 F23      0.038700
     51 H142        1.2030    0.9470   16.2910 hc        1 F23      0.038700
     52 H151       -1.0890    0.8850   17.3330 hc        1 F23      0.039200
     53 H152       -1.0380   -0.9200   17.3400 hc        1 F23      0.039200
     54 H161        0.9720    0.9490   18.7810 hc        1 F23      0.038700
     55 H162        1.0220   -0.8550   18.7880 hc        1 F23      0.038700
     56 H171       -1.3210    0.8890   19.8220 hc        1 F23      0.039700
     57 H172       -1.2710   -0.9150   19.8280 hc        1 F23      0.039700
     58 H181        0.7400    0.9510   21.2700 hc        1 F23      0.039200
     59 H182        0.7890   -0.8530   21.2760 hc        1 F23      0.039200
     60 H191       -1.5040   -0.9120   22.3170 hc        1 F23      0.039700
     61 H192       -1.5530    0.8930   22.3110 hc        1 F23      0.039700
     62 H201        0.5080    0.9530   23.7580 hc        1 F23      0.038700
     63 H202        0.5560   -0.8520   23.7650 hc        1 F23      0.038700
     64 H211       -1.7850    0.8960   24.8000 hc        1 F23      0.039700
     65 H212       -1.7370   -0.9090   24.8060 hc        1 F23      0.039700
     66 H221        0.2760    0.9550   26.2450 hc        1 F23      0.037700
     67 H222        0.3230   -0.8500   26.2510 hc        1 F23      0.037700
     68 H231       -0.7630    0.0320   28.3170 hc        1 F23      0.031367
     69 H232       -1.9540   -0.9080   27.3270 hc        1 F23      0.031367
     70 H233       -2.0000    0.9010   27.3210 hc        1 F23      0.031367
@<TRIPOS>BOND
     1    1    3 1   
     2    2    3 1   
     3    3    4 1   
     4    4    5 1   
     5    4   26 1   
     6    4   27 1   
     7    5    6 1   
     8    5   28 1   
     9    5   29 1   
    10    6    7 1   
    11    6   30 1   
    12    6   31 1   
    13    7    8 1   
    14    7   32 1   
    15    7   33 1   
    16    8    9 1   
    17    8   34 1   
    18    8   35 1   
    19    9   10 1   
    20    9   36 1   
    21    9   37 1   
    22   10   11 1   
    23   10   38 1   
    24   10   39 1   
    25   11   12 1   
    26   11   40 1   
    27   11   41 1   
    28   12   13 1   
    29   12   42 1   
    30   12   43 1   
    31   13   14 1   
    32   13   44 1   
    33   13   45 1   
    34   14   15 1   
    35   14   46 1   
    36   14   47 1   
    37   15   16 1   
    38   15   48 1   
    39   15   49 1   
    40   16   17 1   
    41   16   50 1   
    42   16   51 1   
    43   17   18 1   
    44   17   52 1   
    45   17   53 1   
    46   18   19 1   
    47   18   54 1   
    48   18   55 1   
    49   19   20 1   
    50   19   56 1   
    51   19   57 1   
    52   20   21 1   
    53   20   58 1   
    54   20   59 1   
    55   21   22 1   
    56   21   60 1   
    57   21   61 1   
    58   22   23 1   
    59   22   62 1   
    60   22   63 1   
    61   23   24 1   
    62   23   64 1   
    63   23   65 1   
    64   24   25 1   
    65   24   66 1   
    66   24   67 1   
    67   25   68 1   
    68   25   69 1   
    69   25   70 1   
@<TRIPOS>SUBSTRUCTURE
     1 F23         1 TEMP              0 ****  ****    0 ROOT
