@<TRIPOS>MOLECULE
F24
   52    50     1     0     0
SMALL
bcc


@<TRIPOS>ATOM
      1 C1          2.1870   -0.6520    0.7130 cx        1 F24     -0.325700
      2 O1         -5.7630    0.5020   -8.7670 o         1 F24     -0.838300
      3 C2          0.9160    0.0780    0.3060 cx        1 F24      0.113600
      4 O2          3.2810   -2.7670    0.6850 o         1 F24     -0.534100
      5 C3         -6.8340    1.1210   -8.4950 c         1 F24      0.895800
      6 C4          1.3180    0.0300    1.7600 cx        1 F24      0.113600
      7 O4         -7.3690    1.9590   -9.2760 o         1 F24     -0.838300
      8 C5         -0.4940    1.4200   -2.6490 c3        1 F24     -0.103100
      9 O5          1.7590    1.2420    2.2900 oh        1 F24     -0.568800
     10 C6         -7.5160    0.8970   -7.1660 ce        1 F24     -0.161200
     11 O6         -0.2020   -0.6930   -0.0090 oh        1 F24     -0.568800
     12 C7         -7.5140    1.5910   -4.1390 c3        1 F24     -0.046900
     13 C8          2.2260   -2.1290    0.6980 c         1 F24      0.597900
     14 C9         -7.7160   -0.2830   -6.5540 cf        1 F24     -0.141200
     15 C10        -1.5380    0.5470   -3.2960 c3        1 F24     -0.082400
     16 C11        -1.0990    0.0840   -4.6730 c3        1 F24     -0.032200
     17 C12        -8.4500   -0.4110   -5.3030 cf        1 F24     -0.091000
     18 C13        -3.6480   -1.3610   -7.1930 c3        1 F24     -0.103900
     19 C16        -9.2070    0.1330   -3.0210 c3        1 F24     -0.046900
     20 C18        -2.6150   -0.5370   -6.5430 c2        1 F24     -0.106200
     21 C20        -2.1350   -0.7590   -5.3150 c2        1 F24     -0.240200
     22 C21        -7.2450   -1.5740   -7.1190 c3        1 F24     -0.050900
     23 H1         -0.8220    1.7310   -1.6260 hc        1 F24      0.027700
     24 H2          3.1510   -0.1720    0.4490 hc        1 F24      0.111700
     25 H4          1.0070    1.0260   -0.2620 h1        1 F24      0.098200
     26 H4A         0.7370   -0.5840    2.4750 h1        1 F24      0.098200
     27 H5          0.4790    0.8780   -2.5600 hc        1 F24      0.027700
     28 H5A        -0.3220    2.3410   -3.2570 hc        1 F24      0.027700
     29 HO5         2.4210    1.0210    2.9590 ho        1 F24      0.421500
     30 H6         -7.9120    1.8250   -6.7200 ha        1 F24      0.104000
     31 HO6        -0.4640   -0.4560   -0.9120 ho        1 F24      0.421500
     32 H7         -7.1430    1.7290   -3.0930 hc        1 F24      0.030200
     33 H7A        -8.0850    2.5090   -4.4310 hc        1 F24      0.030200
     34 H7B        -6.6330    1.4970   -4.8240 hc        1 F24      0.030200
     35 H8          1.2320   -2.6310    0.6960 h4        1 F24      0.017200
     36 H10        -1.7430   -0.3480   -2.6510 hc        1 F24      0.043700
     37 H10A       -2.5020    1.1140   -3.3860 hc        1 F24      0.043700
     38 H11        -0.1470   -0.5060   -4.5790 hc        1 F24      0.033700
     39 H11A       -0.8680    0.9810   -5.3080 hc        1 F24      0.033700
     40 H12        -9.1110   -1.2980   -5.2610 ha        1 F24      0.099000
     41 H13        -4.0400   -2.1580   -6.5150 hc        1 F24      0.065033
     42 H13A       -3.2280   -1.8460   -8.1090 hc        1 F24      0.065033
     43 H13B       -4.5120   -0.7100   -7.5220 hc        1 F24      0.065033
     44 H16        -9.9030   -0.7280   -3.1720 hc        1 F24      0.030200
     45 H16A       -9.8150    1.0360   -2.7650 hc        1 F24      0.030200
     46 H18        -8.5460   -0.0980   -2.1480 hc        1 F24      0.030200
     47 H20        -2.2580    0.3160   -7.1460 ha        1 F24      0.120000
     48 H20A       -2.4990   -1.6000   -4.7040 ha        1 F24      0.112000
     49 H21        -6.5200   -2.0590   -6.4180 hc        1 F24      0.036033
     50 H21A       -6.7260   -1.4080   -8.0990 hc        1 F24      0.036033
     51 H21B       -8.1050   -2.2730   -7.2710 hc        1 F24      0.036033
     52 C14        -8.3860    0.3970   -4.2300 c2        1 F24     -0.167400
@<TRIPOS>BOND
     1    1    3 1   
     2    1    6 1   
     3    1   13 1   
     4    1   24 1   
     5    2    5 1   
     6    3    6 1   
     7    3   11 1   
     8    3   25 1   
     9    4   13 2   
    10    5    7 1   
    11    5   10 1   
    12    6    9 1   
    13    6   26 1   
    14    8   15 1   
    15    8   23 1   
    16    8   27 1   
    17    8   28 1   
    18    9   29 1   
    19   10   14 2   
    20   10   30 1   
    21   11   31 1   
    22   12   32 1   
    23   12   33 1   
    24   12   34 1   
    25   12   52 1   
    26   13   35 1   
    27   14   17 1   
    28   14   22 1   
    29   15   16 1   
    30   15   36 1   
    31   15   37 1   
    32   16   21 1   
    33   16   38 1   
    34   16   39 1   
    35   17   40 1   
    36   17   52 2   
    37   18   20 1   
    38   18   41 1   
    39   18   42 1   
    40   18   43 1   
    41   19   44 1   
    42   19   45 1   
    43   19   46 1   
    44   19   52 1   
    45   20   21 2   
    46   20   47 1   
    47   21   48 1   
    48   22   49 1   
    49   22   50 1   
    50   22   51 1   
@<TRIPOS>SUBSTRUCTURE
     1 F24         1 TEMP              0 ****  ****    0 ROOT
