@<TRIPOS>MOLECULE
molecule
   52    51     1     0     0
SMALL
bcc


@<TRIPOS>ATOM
      1 C1           1.5300     0.0000     0.0000 c3         1 F24      -0.200700
      2 O1          -8.8790    -0.0370   -10.1230 o          1 F24      -0.838300
      3 C2           0.0000     0.0000     0.0000 c3         1 F24       0.153100
      4 O2           2.7270    -1.1200    -1.6920 o          1 F24      -0.523100
      5 C3          -9.2820     0.6500    -9.2040 c          1 F24       0.853800
      6 C4           2.0400     0.0000     1.4430 c3         1 F24       0.148400
      7 O4         -10.3420     1.4650    -9.3850 o          1 F24      -0.838300
      8 C5          -0.5090    -0.0000    -1.4420 c3         1 F24      -0.097400
      9 O5           3.4640     0.1170     1.4450 oh         1 F24      -0.607800
     10 C6          -8.6370     0.5970    -7.9420 ce         1 F24      -0.118200
     11 O6          -0.4760    -1.1670     0.6730 oh         1 F24      -0.609800
     12 C7          -6.4920     1.9520    -6.4720 c3         1 F24      -0.107900
     13 C8           2.0320    -1.2310    -0.7110 c          1 F24       0.595900
     14 C9          -7.6450    -0.2980    -7.7280 cf         1 F24      -0.177200
     15 C10         -2.0340     0.1260    -1.4440 c3         1 F24      -0.083400
     16 C11         -2.5440     0.1270    -2.8870 c3         1 F24      -0.082400
     17 C12         -7.0660    -0.4410    -6.3920 cf         1 F24      -0.469000
     18 C13         -4.2830    -1.1030    -4.9770 c3         1 F24      -0.085100
     19 C16         -6.0880     0.5030    -4.3390 c3         1 F24      -0.028200
     20 C18         -4.5790     0.2520    -4.3320 c3         1 F24      -0.067700
     21 C20         -4.0690     0.2520    -2.8890 c3         1 F24      -0.077400
     22 C21         -7.1360    -1.1460    -8.8650 c3         1 F24      -0.050900
     23 H1           1.8910     0.8840    -0.5110 hc         1 F24       0.092700
     24 H2          -0.3610     0.8840     0.5110 h1         1 F24       0.036700
     25 H4           1.6080     0.8370     1.9780 h1         1 F24       0.027200
     26 H4A          1.7530    -0.9260     1.9270 h1         1 F24       0.027200
     27 H5          -0.2230    -0.9260    -1.9260 hc         1 F24       0.058200
     28 H5A         -0.0770     0.8370    -1.9780 hc         1 F24       0.058200
     29 HO5          3.7630     0.2990     2.3200 ho         1 F24       0.402000
     30 H6          -9.0020     1.2070    -7.1240 ha         1 F24       0.116000
     31 HO6         -1.0770    -0.9140     1.3550 ho         1 F24       0.404000
     32 H7          -5.8160     2.6090    -5.9370 hc         1 F24       0.042700
     33 H7A         -7.4750     2.4050    -6.5190 hc         1 F24       0.042700
     34 H7B         -6.1200     1.7920    -7.4770 hc         1 F24       0.042700
     35 H8           1.8010    -2.2140    -0.3200 h4         1 F24       0.009200
     36 H10         -2.4660    -0.7110    -0.9090 hc         1 F24       0.040200
     37 H10A        -2.3210     1.0510    -0.9590 hc         1 F24       0.040200
     38 H11         -2.2570    -0.7990    -3.3720 hc         1 F24       0.046200
     39 H11A        -2.1120     0.9640    -3.4220 hc         1 F24       0.046200
     40 H12         -6.4510    -0.4300    -7.2830 ha         1 F24       0.350000
     41 H13         -3.3550    -1.4970    -4.5800 hc         1 F24       0.037367
     42 H13A        -5.0900    -1.7920    -4.7580 hc         1 F24       0.037367
     43 H13B        -4.1940    -0.9810    -6.0500 hc         1 F24       0.037367
     44 H16         -6.3050     1.4200    -3.8040 hc         1 F24       0.047700
     45 H16A        -6.5940    -0.3250    -3.8560 hc         1 F24       0.047700
     46 H18         -4.0810     1.0350    -4.8910 hc         1 F24       0.042700
     47 H20         -4.3550     1.1780    -2.4050 hc         1 F24       0.038200
     48 H20A        -4.5010    -0.5840    -2.3530 hc         1 F24       0.038200
     49 H21         -6.6100    -0.5190    -9.5750 hc         1 F24       0.046033
     50 H21A        -6.4610    -1.9000    -8.4790 hc         1 F24       0.046033
     51 H21B        -7.9720    -1.6280    -9.3580 hc         1 F24       0.046033
     52 C14         -6.5700     0.6250    -5.7610 c2         1 F24      -0.035400
@<TRIPOS>BOND
     1     1     3 1
     2     2     5 1
     3     3    11 1
     4     3     8 1
     5     4    13 2
     6     5     7 1
     7     6     1 1
     8     9     6 1
     9    10     5 1
    10    10    14 2
    11    12    52 1
    12    13     1 1
    13    14    22 1
    14    15     8 1
    15    15    16 1
    16    16    21 1
    17    17    14 1
    18    52    17 2
    19    19    52 1
    20    20    18 1
    21    20    19 1
    22    21    20 1
    23     1    23 1
    24     3    24 1
    25     6    25 1
    26     6    26 1
    27     8    27 1
    28     8    28 1
    29     9    29 1
    30    10    30 1
    31    11    31 1
    32    12    32 1
    33    12    33 1
    34    12    34 1
    35    13    35 1
    36    15    36 1
    37    15    37 1
    38    16    38 1
    39    16    39 1
    40    17    40 1
    41    18    41 1
    42    18    42 1
    43    18    43 1
    44    19    44 1
    45    19    45 1
    46    20    46 1
    47    21    47 1
    48    21    48 1
    49    22    49 1
    50    22    50 1
    51    22    51 1
@<TRIPOS>SUBSTRUCTURE
     1 F24         1 TEMP              0 ****  ****    0 ROOT
