@<TRIPOS>MOLECULE
molecule
   61    65     1     0     0
SMALL
bcc


@<TRIPOS>ATOM
      1 O21          0.0000     0.0000     0.0000 o          1 F25      -0.684500
      2 C20          1.2130     0.0000     0.0000 c          1 F25       0.715500
      3 N19          1.9870     0.0000     1.1120 n          1 F25      -0.468800
      4 C23          1.4620    -0.0030     2.4800 c3         1 F25       0.160300
      5 C24          1.4270    -1.4160     3.0020 ca         1 F25      -0.137300
      6 C32          2.4900    -1.9050     3.7390 ca         1 F25      -0.094000
      7 C31          2.4590    -3.2020     4.2180 ca         1 F25      -0.169000
      8 C30          1.3650    -4.0090     3.9600 ca         1 F25       0.164900
      9 F29          1.3340    -5.2760     4.4280 f          1 F25      -0.119900
     10 C26          0.3010    -3.5170     3.2230 ca         1 F25      -0.169000
     11 C25          0.3310    -2.2190     2.7500 ca         1 F25      -0.094000
     12 C17          3.4140     0.0130     0.7740 c3         1 F25       0.049700
     13 C16          3.4960    -0.4250    -0.7050 c3         1 F25      -0.093700
     14 C15          3.4850    -1.9590    -0.7940 c3         1 F25       0.139500
     15 N11          2.5230    -2.3340    -1.8380 n3         1 F25      -0.670600
     16 C12          3.3950    -2.5300    -3.0920 c3         1 F25       0.122800
     17 C13          4.6800    -3.1900    -2.5370 c3         1 F25      -0.082400
     18 C14          4.8800    -2.4720    -1.1820 c3         1 F25      -0.086400
     19 C10          1.6740    -1.1740    -2.1500 c3         1 F25       0.178800
     20 C7           0.2280    -1.5210    -1.9070 ca         1 F25       0.053700
     21 C8          -0.7480    -1.0550    -2.7680 ca         1 F25      -0.049000
     22 C9          -2.0750    -1.3740    -2.5470 ca         1 F25      -0.103500
     23 C4          -2.4260    -2.1600    -1.4660 ca         1 F25      -0.266300
     24 C5          -1.4490    -2.6220    -0.6010 ca         1 F25      -0.103500
     25 C6          -0.1220    -2.3070    -0.8260 ca         1 F25      -0.049000
     26 C3          -3.8720    -2.5090    -1.2240 c3         1 F25       0.394000
     27 N1          -4.7270    -1.4260    -1.7290 nz         1 F25      -0.839100
     28 N2          -4.1000    -2.6830     0.2170 nz         1 F25      -0.839100
     29 C22          2.0900    -0.0160    -1.2300 c3         1 F25      -0.178700
     30 C18          3.9860     1.4230     0.9390 c3         1 F25       0.392900
     31 F33          3.9340     1.7920     2.2880 f          1 F25      -0.223300
     32 F32          5.3150     1.4410     0.5020 f          1 F25      -0.223300
     33 H231         0.4590     0.4080     2.4820 h1         1 F25       0.083700
     34 H232         2.1000     0.6010     3.1130 h1         1 F25       0.083700
     35 H25          3.3460    -1.2730     3.9400 ha         1 F25       0.131000
     36 H26          3.2920    -3.5860     4.7950 ha         1 F25       0.148000
     37 H28         -0.5570    -4.1480     3.0230 ha         1 F25       0.148000
     38 H29         -0.5010    -1.8340     2.1730 ha         1 F25       0.131000
     39 H17          3.9510    -0.6890     1.4000 h1         1 F25       0.103700
     40 H16          4.3090     0.0380    -1.2510 hc         1 F25       0.115700
     41 H15          3.1850    -2.3840     0.1560 h1         1 F25       0.081700
     42 H121         3.6250    -1.5740    -3.5480 h1         1 F25       0.059200
     43 H122         2.9030    -3.1890    -3.7970 h1         1 F25       0.059200
     44 H131         4.5300    -4.2520    -2.3880 hc         1 F25       0.072700
     45 H132         5.5200    -3.0030    -3.1960 hc         1 F25       0.072700
     46 H142         5.5670    -1.6420    -1.2960 hc         1 F25       0.068700
     47 H141         5.2430    -3.1710    -0.4380 hc         1 F25       0.068700
     48 H10          1.8170    -0.8860    -3.1840 h1         1 F25       0.088700
     49 H8          -0.4730    -0.4380    -3.6150 ha         1 F25       0.184500
     50 H9          -2.8390    -1.0090    -3.2230 ha         1 F25       0.112500
     51 H5          -1.7240    -3.2390     0.2460 ha         1 F25       0.112500
     52 H6           0.6430    -2.6690    -0.1490 ha         1 F25       0.184500
     53 H33         -4.1120    -3.4300    -1.7410 hx         1 F25       0.173700
     54 H12         -5.6630    -1.5610    -1.4030 hn         1 F25       0.484300
     55 HN1         -4.3820    -0.5470    -1.3990 hn         1 F25       0.484300
     56 H23         -5.0830    -2.7300     0.3960 hn         1 F25       0.484300
     57 HN2         -3.6640    -3.5300     0.5240 hn         1 F25       0.484300
     58 H22          2.1040     0.9370    -1.7430 hc         1 F25       0.111700
     59 H18          3.4020     2.1200     0.3510 h2         1 F25       0.073700
     60 H13         -4.7200    -1.4350    -2.7300 hn         1 F25       0.484300
     61 H233        -3.7200    -1.9000     0.7120 hn         1 F25       0.484300
@<TRIPOS>BOND
     1     1     2 2
     2     2     3 1
     3     2    29 1
     4     3     4 1
     5     3    12 1
     6     4     5 1
     7     4    33 1
     8     4    34 1
     9     5     6 ar
    10     5    11 ar
    11     6     7 ar
    12     6    35 1
    13     7     8 ar
    14     7    36 1
    15     8     9 1
    16     8    10 ar
    17    10    11 ar
    18    10    37 1
    19    11    38 1
    20    12    13 1
    21    12    30 1
    22    12    39 1
    23    13    14 1
    24    13    29 1
    25    13    40 1
    26    14    15 1
    27    14    18 1
    28    14    41 1
    29    15    16 1
    30    15    19 1
    31    16    17 1
    32    16    42 1
    33    16    43 1
    34    17    18 1
    35    17    44 1
    36    17    45 1
    37    18    46 1
    38    18    47 1
    39    19    20 1
    40    19    29 1
    41    19    48 1
    42    20    21 ar
    43    20    25 ar
    44    21    22 ar
    45    21    49 1
    46    22    23 ar
    47    22    50 1
    48    23    24 ar
    49    23    26 1
    50    24    25 ar
    51    24    51 1
    52    25    52 1
    53    26    27 1
    54    26    28 1
    55    26    53 1
    56    27    54 1
    57    27    55 1
    58    28    56 1
    59    28    57 1
    60    29    58 1
    61    30    31 1
    62    30    32 1
    63    30    59 1
    64    60    27 1
    65    61    28 1
@<TRIPOS>SUBSTRUCTURE
     1 F25         1 TEMP              0 ****  ****    0 ROOT
