@<TRIPOS>MOLECULE
F27
   47    50     1     0     0
SMALL
bcc


@<TRIPOS>ATOM
      1 C12         0.0240    0.0740   -0.0780 c3        1 F27     -0.166400
      2 C13         1.5250    0.0580   -0.1180 c         1 F27      0.514600
      3 O14         2.2380    0.0640    0.8890 o         1 F27     -0.518100
      4 C15         2.0920    0.0350   -1.4750 cc        1 F27      0.353900
      5 N16         1.4960    0.0150   -2.6770 nd        1 F27     -0.633000
      6 C17         2.5180   -0.0030   -3.6150 cd        1 F27      0.230900
      7 C18         3.7540    0.0080   -2.9530 cc        1 F27      0.183400
      8 O19         3.4970    0.0310   -1.5820 os        1 F27     -0.341800
      9 C20         5.1320   -0.0010   -3.4060 ca        1 F27      0.318300
     10 N21         5.3340   -0.0270   -4.7590 nb        1 F27     -0.638000
     11 C22         6.6020   -0.0360   -5.1940 ca        1 F27      0.384800
     12 C23         7.7150   -0.0190   -4.3080 ca        1 F27     -0.208300
     13 C24         7.4940    0.0070   -2.9400 ca        1 F27     -0.126000
     14 C25         6.1760    0.0160   -2.4650 ca        1 F27     -0.238300
     15 C26         6.9120   -0.0650   -6.7150 c         1 F27      0.827100
     16 O27         7.0480   -1.2000   -7.2340 o         1 F27     -0.800300
     17 O28         7.0470    1.0490   -7.2780 o         1 F27     -0.800300
     18 C29        -0.5020    0.0740    1.3440 c3        1 F27     -0.037100
     19 C30        -1.9890    0.0520    1.3790 ca        1 F27     -0.068300
     20 C31        -2.7080    1.1770    1.7970 ca        1 F27     -0.127000
     21 C32        -4.1000    1.1510    1.8410 ca        1 F27     -0.116000
     22 C33        -4.8010   -0.0050    1.4710 cp        1 F27     -0.047000
     23 C34        -4.0790   -1.1330    1.0540 ca        1 F27     -0.116000
     24 C35        -2.6890   -1.1030    1.0080 ca        1 F27     -0.127000
     25 C36        -6.2610   -0.0350    1.5190 cp        1 F27     -0.029000
     26 C37        -7.0090    1.0760    1.1020 ca        1 F27     -0.119500
     27 C38        -8.4010    1.0450    1.1470 ca        1 F27     -0.132000
     28 C39        -9.0630   -0.0920    1.6100 ca        1 F27     -0.132000
     29 C40        -8.3270   -1.2000    2.0270 ca        1 F27     -0.132000
     30 C41        -6.9350   -1.1750    1.9820 ca        1 F27     -0.119500
     31 H12        -0.3610   -0.8220   -0.6350 hc        1 F27      0.085700
     32 H12A       -0.3370    0.9850   -0.6270 hc        1 F27      0.085700
     33 H17         2.3310   -0.0210   -4.6910 h4        1 F27      0.075100
     34 H23         8.7280   -0.0270   -4.7330 ha        1 F27      0.148000
     35 H24         8.3320    0.0210   -2.2290 ha        1 F27      0.118000
     36 H25         5.9570    0.0370   -1.3900 ha        1 F27      0.137000
     37 H29        -0.1090    0.9780    1.8830 hc        1 F27      0.061200
     38 H29A       -0.1000   -0.8260    1.8850 hc        1 F27      0.061200
     39 H31        -2.1710    2.0910    2.0930 ha        1 F27      0.135000
     40 H32        -4.6540    2.0410    2.1750 ha        1 F27      0.132500
     41 H34        -4.6170   -2.0440    0.7510 ha        1 F27      0.132500
     42 H35        -2.1310   -1.9910    0.6740 ha        1 F27      0.135000
     43 H37        -6.4900    1.9720    0.7290 ha        1 F27      0.135500
     44 H38        -8.9780    1.9200    0.8130 ha        1 F27      0.129000
     45 H39       -10.1620   -0.1140    1.6440 ha        1 F27      0.128000
     46 H40        -8.8450   -2.0980    2.3930 ha        1 F27      0.129000
     47 H41        -6.3570   -2.0500    2.3160 ha        1 F27      0.135500
@<TRIPOS>BOND
     1    1    2 1
     2    1   18 1
     3    1   31 1
     4    1   32 1
     5    2    3 2
     6    2    4 1
     7    4    5 2
     8    4    8 1
     9    5    6 1
    10    6    7 2
    11    6   33 1
    12    7    8 1
    13    7    9 1
    14    9   10 ar
    15    9   14 ar
    16   10   11 ar
    17   11   12 ar
    18   11   15 1
    19   12   13 ar
    20   12   34 1
    21   13   14 ar
    22   13   35 1
    23   14   36 1
    24   15   16 1
    25   15   17 1
    26   18   19 1
    27   18   37 1
    28   18   38 1
    29   19   20 ar
    30   19   24 ar
    31   20   21 ar
    32   20   39 1
    33   21   22 ar
    34   21   40 1
    35   22   23 ar
    36   22   25 1
    37   23   24 ar
    38   23   41 1
    39   24   42 1
    40   25   26 ar
    41   25   30 ar
    42   26   27 ar
    43   26   43 1
    44   27   28 ar
    45   27   44 1
    46   28   29 ar
    47   28   45 1
    48   29   30 ar
    49   29   46 1
    50   30   47 1
@<TRIPOS>SUBSTRUCTURE
     1 F27         1 TEMP              0 ****  ****    0 ROOT
