@<TRIPOS>MOLECULE
F29
   45    49     1     0     0
SMALL
bcc


@<TRIPOS>ATOM
      1 C1           0.0000     0.0000     0.0000 cc         1 F29      -0.124000
      2 C2           1.3500     0.0000     0.0000 cd         1 F29      -0.204300
      3 N3           2.0470     0.0000     1.1730 na         1 F29       0.723000
      4 C4           1.3780     0.0000     2.3700 cd         1 F29      -0.191300
      5 C5          -0.0260     0.0010     2.3910 cd         1 F29      -0.072000
      6 C6          -0.7100     0.0000     1.2120 cc         1 F29      -0.095000
      7 N7           3.4200     0.0010     1.4470 nd         1 F29      -0.750100
      8 C8           3.6030     0.0070     2.7550 cc         1 F29       0.540200
      9 C9           2.3440     0.0020     3.3830 cc         1 F29      -0.409400
     10 C10          2.0890     0.0020     4.8410 ca         1 F29       0.405100
     11 C11          4.9150     0.0110     3.4460 ca         1 F29      -0.092900
     12 C12          5.1180    -0.7920     4.5670 ca         1 F29      -0.073000
     13 C13          6.3420    -0.7850     5.2060 ca         1 F29      -0.105500
     14 C14          7.3650     0.0170     4.7350 ca         1 F29      -0.093000
     15 C15          7.1700     0.8160     3.6230 ca         1 F29      -0.105500
     16 C16          5.9530     0.8130     2.9730 ca         1 F29      -0.073000
     17 C22          1.1610    -0.8850     5.3870 ca         1 F29      -0.105300
     18 C23          0.9670    -0.8410     6.7690 ca         1 F29      -0.355200
     19 C24          1.7070     0.0980     7.5230 ca         1 F29       0.241800
     20 N25          2.5640     0.8980     6.9030 nb         1 F29      -0.293000
     21 N26          2.7440     0.8490     5.6320 nb         1 F29      -0.236000
     22 C27          0.1180    -1.5580     7.7180 cc         1 F29       0.481800
     23 N28          0.3630    -1.0740     8.9080 nd         1 F29      -0.609100
     24 N29          1.3260    -0.0630     8.8270 na         1 F29       0.374200
     25 N30         -0.7840    -2.5790     7.4120 nv         1 F29      -0.570800
     26 C3           1.8460     0.7040     9.9630 c3         1 F29       0.043500
     27 C7           3.0520     0.0020    10.5320 c2         1 F29      -0.196200
     28 C17          4.1880     0.6440    10.6520 c2         1 F29      -0.124000
     29 H1          -0.5390    -0.0000    -0.9400 ha         1 F29       0.120000
     30 H2           1.8850    -0.0000    -0.9420 h4         1 F29       0.143000
     31 H5          -0.5600     0.0010     3.3330 ha         1 F29       0.123000
     32 H6          -1.7930     0.0000     1.2100 ha         1 F29       0.114000
     33 H12          4.3170    -1.4210     4.9360 ha         1 F29       0.108500
     34 H13          6.5000    -1.4090     6.0770 ha         1 F29       0.101500
     35 H14          8.3230     0.0210     5.2410 ha         1 F29       0.099000
     36 H15          7.9760     1.4400     3.2580 ha         1 F29       0.101500
     37 H16          5.8010     1.4390     2.1020 ha         1 F29       0.108500
     38 H22          0.8450    -1.7550     4.8240 ha         1 F29       0.123000
     39 H301        -0.4910    -3.5350     7.4510 hn         1 F29       0.275300
     40 H302        -1.7340    -2.3560     7.1870 hn         1 F29       0.275300
     41 H31          1.0810     0.7840    10.7260 h1         1 F29       0.041700
     42 H32          2.1290     1.6960     9.6300 h1         1 F29       0.041700
     43 H7           2.9790    -1.0330    10.8410 ha         1 F29       0.113000
     44 H171         4.2600     1.6800    10.3430 ha         1 F29       0.087500
     45 H172         5.0540     0.1390    11.0610 ha         1 F29       0.087500
@<TRIPOS>BOND
     1     1     2 2
     2     1     6 1
     3     1    29 1
     4     2     3 1
     5     2    30 1
     6     3     4 1
     7     3     7 1
     8     4     5 1
     9     4     9 2
    10     5     6 2
    11     5    31 1
    12     6    32 1
    13     7     8 2
    14     8     9 1
    15     8    11 1
    16     9    10 1
    17    10    17 ar
    18    10    21 ar
    19    11    12 ar
    20    11    16 ar
    21    12    13 ar
    22    12    33 1
    23    13    14 ar
    24    13    34 1
    25    14    15 ar
    26    14    35 1
    27    15    16 ar
    28    15    36 1
    29    16    37 1
    30    17    18 ar
    31    17    38 1
    32    18    19 ar
    33    18    22 1
    34    19    20 ar
    35    19    24 1
    36    20    21 ar
    37    22    23 2
    38    22    25 1
    39    23    24 1
    40    24    26 1
    41    25    39 1
    42    25    40 1
    43    26    27 1
    44    26    41 1
    45    26    42 1
    46    27    28 2
    47    27    43 1
    48    28    44 1
    49    28    45 1
@<TRIPOS>SUBSTRUCTURE
     1 F29         1 TEMP              0 ****  ****    0 ROOT
