@<TRIPOS>MOLECULE
F2B
   35    36     1     0     0
SMALL
bcc


@<TRIPOS>ATOM
      1 C01          0.0000     0.0000     0.0000 ca         1 F2B      -0.075000
      2 C02          1.3800     0.0000     0.0000 ca         1 F2B       0.006500
      3 C03          2.0740     0.0000     1.1950 ca         1 F2B      -0.221500
      4 C04          1.3930    -0.0070     2.3980 ca         1 F2B       0.006500
      5 C05          0.0130    -0.0010     2.4130 ca         1 F2B      -0.075000
      6 C06         -0.6940    -0.0010     1.2110 ca         1 F2B      -0.038600
      7 C07         -2.1720    -0.0000     1.2190 c          1 F2B       0.563700
      8 O08         -2.7850     0.0010     0.1690 o          1 F2B      -0.614100
      9 N09         -2.8390    -0.0020     2.3890 ns         1 F2B      -0.169900
     10 C10         -4.3040    -0.0010     2.3960 c3         1 F2B       0.118300
     11 S11          3.8370    -0.0010     1.1860 sy         1 F2B       0.939200
     12 NP2          4.3320     1.5790     1.1830 nz         1 F2B      -0.132500
     13 O13          4.2160    -0.5260    -0.0790 o          1 F2B      -0.494300
     14 O14          4.2300    -0.5260     2.4460 o          1 F2B      -0.494300
     15 C15         -4.7990    -0.0020     3.8200 ca         1 F2B      -0.144300
     16 C16         -5.5920     1.0350     4.2770 ca         1 F2B      -0.069000
     17 C17         -6.0450     1.0370     5.5820 ca         1 F2B      -0.076000
     18 C18         -5.7090     0.0000     6.4330 ca         1 F2B      -0.094000
     19 C19         -4.9170    -1.0380     5.9790 ca         1 F2B       0.090900
     20 C20         -4.4650    -1.0420     4.6670 ca         1 F2B       0.077900
     21 F21         -4.5870    -2.0510     6.8100 f          1 F2B      -0.108900
     22 F22         -3.6920    -2.0560     4.2210 f          1 F2B      -0.117900
     23 H01C        -0.5430     0.0000    -0.9370 ha         1 F2B       0.143000
     24 H02C         1.9200     0.0030    -0.9390 ha         1 F2B       0.128000
     25 H04C         1.9430    -0.0070     3.3310 ha         1 F2B       0.128000
     26 H05C        -0.5200    -0.0040     3.3560 ha         1 F2B       0.143000
     27 H09N        -2.3340     0.0360     3.2520 hn         1 F2B       0.180500
     28 H101        -4.6670     0.8850     1.8890 h1         1 F2B       0.043700
     29 H102        -4.6690    -0.8840     1.8860 h1         1 F2B       0.043700
     30 HNP1         3.9790     2.0380     0.3670 hn         1 F2B       0.314133
     31 HNP2         3.9840     2.0390     2.0010 hn         1 F2B       0.314133
     32 H16C        -5.8560     1.8470     3.6110 ha         1 F2B       0.119000
     33 H17C        -6.6660     1.8500     5.9380 ha         1 F2B       0.120000
     34 H18C        -6.0630     0.0030     7.4570 ha         1 F2B       0.132000
     35 HP23         5.3320     1.6150     1.1720 hn         1 F2B       0.314133
@<TRIPOS>BOND
     1     1     2 ar  
     2     1     6 ar  
     3     1    23 1   
     4     2     3 ar  
     5     2    24 1   
     6     3     4 ar  
     7     3    11 1   
     8     4     5 ar  
     9     4    25 1   
    10     5     6 ar  
    11     5    26 1   
    12     6     7 1   
    13     7     8 2   
    14     7     9 1   
    15     9    10 1   
    16     9    27 1   
    17    10    15 1   
    18    10    28 1   
    19    10    29 1   
    20    11    12 1   
    21    11    13 2   
    22    11    14 2   
    23    12    30 1   
    24    12    31 1   
    25    12    35 1   
    26    15    16 ar  
    27    15    20 ar  
    28    16    17 ar  
    29    16    32 1   
    30    17    18 ar  
    31    17    33 1   
    32    18    19 ar  
    33    18    34 1   
    34    19    20 ar  
    35    19    21 1   
    36    20    22 1   
@<TRIPOS>SUBSTRUCTURE
     1 F2B         1 TEMP              0 ****  ****    0 ROOT
