@<TRIPOS>MOLECULE
F2C
   49    51     1     0     0
SMALL
bcc


@<TRIPOS>ATOM
      1 C1         -0.0210   -0.4070    0.0680 ca        1 F2C     -0.129500
      2 C2          1.3710   -0.3610    0.0170 ca        1 F2C     -0.128000
      3 C3          2.1080   -0.0080    1.1540 ca        1 F2C     -0.073300
      4 C4          1.4300    0.2970    2.3410 ca        1 F2C     -0.128000
      5 C5          0.0380    0.2510    2.3890 ca        1 F2C     -0.129500
      6 C6         -0.6900   -0.1020    1.2520 ca        1 F2C     -0.136000
      7 C7          3.5950    0.0350    1.1100 c3        1 F2C     -0.039100
      8 C8          4.1190    1.4590    1.1370 c3        1 F2C     -0.076400
      9 C9          5.6330    1.4800    1.1300 c3        1 F2C     -0.079400
     10 C10         6.1610    2.8990    1.1580 c3        1 F2C     -0.078400
     11 C11         7.6740    2.9170    1.1520 c3        1 F2C     -0.076400
     12 C12         8.2000    4.3350    1.1820 c3        1 F2C     -0.169400
     13 C13         9.7000    4.3850    1.1770 c         1 F2C      0.515600
     14 O14        10.4220    3.3850    1.1500 o         1 F2C     -0.517100
     15 C15        10.2580    5.7460    1.2080 cc        1 F2C      0.355900
     16 N16         9.6510    6.9430    1.2400 nd        1 F2C     -0.636000
     17 C17        10.6660    7.8900    1.2590 cd        1 F2C      0.230900
     18 C18        11.9070    7.2380    1.2370 cc        1 F2C      0.181400
     19 O19        11.6610    5.8650    1.2040 os        1 F2C     -0.342800
     20 C20        13.2810    7.7030    1.2410 ca        1 F2C      0.319300
     21 N21        13.4720    9.0570    1.2740 nb        1 F2C     -0.638000
     22 C22        14.7380    9.5020    1.2790 ca        1 F2C      0.384800
     23 C23        15.8580    8.6260    1.2510 ca        1 F2C     -0.209300
     24 C24        15.6470    7.2550    1.2190 ca        1 F2C     -0.126000
     25 C25        14.3340    6.7700    1.2130 ca        1 F2C     -0.238300
     26 C26        15.0350   11.0260    1.3150 c         1 F2C      0.827100
     27 O27        15.1600   11.5950    0.2030 o         1 F2C     -0.800300
     28 O28        15.1730   11.5400    2.4510 o         1 F2C     -0.800300
     29 H1         -0.5920   -0.6840   -0.8310 ha        1 F2C      0.128000
     30 H2          1.8940   -0.6020   -0.9200 ha        1 F2C      0.131500
     31 H4          2.0040    0.5770    3.2370 ha        1 F2C      0.131500
     32 H5         -0.4860    0.4930    3.3250 ha        1 F2C      0.128000
     33 H6         -1.7880   -0.1380    1.2910 ha        1 F2C      0.127000
     34 H7          4.0070   -0.5290    1.9900 hc        1 F2C      0.047700
     35 H7A         3.9680   -0.4790    0.1840 hc        1 F2C      0.047700
     36 H8          3.7370    1.9800    2.0550 hc        1 F2C      0.044200
     37 H8A         3.7290    2.0210    0.2490 hc        1 F2C      0.044200
     38 H9          6.0130    0.9560    0.2130 hc        1 F2C      0.040700
     39 H9A         6.0230    0.9160    2.0180 hc        1 F2C      0.040700
     40 H10         5.7730    3.4630    0.2690 hc        1 F2C      0.040700
     41 H10A        5.7810    3.4240    2.0740 hc        1 F2C      0.040700
     42 H11         8.0680    2.3530    2.0380 hc        1 F2C      0.051700
     43 H11A        8.0600    2.3950    0.2370 hc        1 F2C      0.051700
     44 H12         7.8220    4.9090    0.2930 hc        1 F2C      0.080700
     45 H12A        7.8300    4.8670    2.1000 hc        1 F2C      0.080700
     46 H17        10.4710    8.9640    1.2860 h4        1 F2C      0.075100
     47 H23        16.8670    9.0580    1.2570 ha        1 F2C      0.147000
     48 H24        16.4910    6.5520    1.1970 ha        1 F2C      0.118000
     49 H25        14.1230    5.6930    1.1880 ha        1 F2C      0.137000
@<TRIPOS>BOND
     1    1    2 ar  
     2    1    6 ar  
     3    1   29 1   
     4    2    3 ar  
     5    2   30 1   
     6    3    4 ar  
     7    3    7 1   
     8    4    5 ar  
     9    4   31 1   
    10    5    6 ar  
    11    5   32 1   
    12    6   33 1   
    13    7    8 1   
    14    7   34 1   
    15    7   35 1   
    16    8    9 1   
    17    8   36 1   
    18    8   37 1   
    19    9   10 1   
    20    9   38 1   
    21    9   39 1   
    22   10   11 1   
    23   10   40 1   
    24   10   41 1   
    25   11   12 1   
    26   11   42 1   
    27   11   43 1   
    28   12   13 1   
    29   12   44 1   
    30   12   45 1   
    31   13   14 2   
    32   13   15 1   
    33   15   16 2   
    34   15   19 1   
    35   16   17 1   
    36   17   18 2   
    37   17   46 1   
    38   18   19 1   
    39   18   20 1   
    40   20   21 ar  
    41   20   25 ar  
    42   21   22 ar  
    43   22   23 ar  
    44   22   26 1   
    45   23   24 ar  
    46   23   47 1   
    47   24   25 ar  
    48   24   48 1   
    49   25   49 1   
    50   26   27 1   
    51   26   28 1   
@<TRIPOS>SUBSTRUCTURE
     1 F2C         1 TEMP              0 ****  ****    0 ROOT
