@<TRIPOS>MOLECULE
F2G
   76    76     1     0     0
SMALL
bcc


@<TRIPOS>ATOM
      1 O22          0.0000     0.0000     0.0000 oh         1 F2G      -0.628800
      2 C21          1.4290     0.0000     0.0000 c3         1 F2G       0.525100
      3 O23          1.9060     0.0000     1.3470 os         1 F2G      -0.405600
      4 C24          1.5300    -1.2540     1.9180 c3         1 F2G       0.181400
      5 C25          1.9990    -1.3130     3.3730 c3         1 F2G      -0.056700
      6 C26          1.4900    -2.6010     4.0230 c3         1 F2G      -0.021900
      7 C27          1.9590    -2.6590     5.4780 c3         1 F2G      -0.022900
      8 C28          3.4880    -2.6370     5.5210 c3         1 F2G      -0.025400
      9 C29          3.9990    -1.3490     4.8720 c3         1 F2G      -0.022900
     10 C30          3.5290    -1.2900     3.4170 c3         1 F2G      -0.021900
     11 N1           1.9180    -1.2000    -0.6930 n7         1 F2G      -0.598200
     12 C2           1.7290    -0.9640    -2.1300 c3         1 F2G       0.073500
     13 C3           3.0850    -0.6930    -2.7850 c3         1 F2G      -0.053700
     14 C5           3.6600     0.6180    -2.2450 c3         1 F2G      -0.006600
     15 C4           4.0440    -1.8410    -2.4640 c3         1 F2G      -0.006600
     16 C6           1.0920    -2.1990    -2.7700 c3         1 F2G       0.320300
     17 O7          -0.1750    -2.4530    -2.1580 oh         1 F2G      -0.589800
     18 N8           0.9020    -1.9640    -4.2070 n7         1 F2G      -0.610200
     19 C9           1.1240    -3.2520    -4.8790 c3         1 F2G       0.074500
     20 C10         -0.1730    -4.0620    -4.8690 c3         1 F2G      -0.000100
     21 C11          1.5590    -3.0030    -6.3250 c3         1 F2G       0.339300
     22 O12          0.5540    -2.2460    -7.0010 oh         1 F2G      -0.562800
     23 N13          1.7440    -4.2910    -7.0080 n7         1 F2G      -0.565200
     24 C14          2.8400    -4.1060    -7.9680 c3         1 F2G       0.111500
     25 C19          2.4040    -4.6150    -9.3440 c3         1 F2G       0.200100
     26 C31          1.1390    -3.8760    -9.7840 c3         1 F2G      -0.029100
     27 O20          2.1360    -6.0160    -9.2700 oh         1 F2G      -0.578800
     28 C15          4.0670    -4.8910    -7.4990 c3         1 F2G      -0.100400
     29 C16          4.5990    -4.2790    -6.2010 c3         1 F2G       0.408900
     30 O17          3.6400    -4.4670    -5.1580 oh         1 F2G      -0.616300
     31 O18          5.8250    -4.9170    -5.8410 oh         1 F2G      -0.616300
     32 H22         -0.3140     0.8840     0.0950 ho         1 F2G       0.405000
     33 H21          1.7900     0.8840    -0.5110 h3         1 F2G       0.032700
     34 H241         0.4520    -1.3590     1.8820 h1         1 F2G       0.013700
     35 H242         1.9900    -2.0590     1.3580 h1         1 F2G       0.013700
     36 H25          1.6120    -0.4590     3.9170 hc         1 F2G       0.035700
     37 H261         1.8820    -3.4550     3.4840 hc         1 F2G       0.017700
     38 H262         0.4070    -2.6150     3.9930 hc         1 F2G       0.017700
     39 H271         1.5720    -1.8020     6.0150 hc         1 F2G       0.012200
     40 H272         1.5990    -3.5720     5.9360 hc         1 F2G       0.012200
     41 H281         3.8200    -2.6770     6.5520 hc         1 F2G       0.011700
     42 H282         3.8760    -3.4910     4.9790 hc         1 F2G       0.011700
     43 H291         5.0820    -1.3360     4.9010 hc         1 F2G       0.012200
     44 H292         3.6080    -0.4950     5.4110 hc         1 F2G       0.012200
     45 H301         3.8880    -0.3760     2.9590 hc         1 F2G       0.017700
     46 H302         3.9170    -2.1470     2.8780 hc         1 F2G       0.017700
     47 HN1          1.3750    -1.9930    -0.4110 hn         1 F2G       0.298800
     48 H2           1.0810    -0.1080    -2.2740 h1         1 F2G       0.038700
     49 H3           2.9590    -0.6170    -3.8580 hc         1 F2G       0.020700
     50 H51          3.9710     0.4790    -1.2170 hc         1 F2G       0.010367
     51 H52          4.5130     0.9120    -2.8450 hc         1 F2G       0.010367
     52 H53          2.9020     1.3900    -2.2920 hc         1 F2G       0.010367
     53 H41          3.8120    -2.6920    -3.0940 hc         1 F2G       0.010367
     54 H42          5.0630    -1.5230    -2.6490 hc         1 F2G       0.010367
     55 H43          3.9360    -2.1220    -1.4240 hc         1 F2G       0.010367
     56 H6           1.7390    -3.0560    -2.6260 h2         1 F2G       0.045700
     57 HO7         -0.8350    -1.9180    -2.5690 ho         1 F2G       0.411000
     58 HN8          1.5780    -1.2990    -4.5280 hn         1 F2G       0.270800
     59 H9           1.8980    -3.8020    -4.3590 h1         1 F2G       0.042700
     60 H101        -0.1830    -4.7390    -5.7150 hc         1 F2G       0.018367
     61 H102        -1.0200    -3.3900    -4.9350 hc         1 F2G       0.018367
     62 H103        -0.2360    -4.6320    -3.9500 hc         1 F2G       0.018367
     63 H11          2.4920    -2.4530    -6.3320 h2         1 F2G      -0.017300
     64 H12          0.8450    -1.3540    -7.0990 ho         1 F2G       0.379000
     65 H13          2.0010    -4.9900    -6.3380 hn         1 F2G       0.298800
     66 H14          3.0880    -3.0540    -8.0340 h1         1 F2G       0.028700
     67 H19          3.1950    -4.4370   -10.0620 h1         1 F2G      -0.011300
     68 H311         1.1350    -2.8810    -9.3560 hc         1 F2G       0.016033
     69 H312         0.2660    -4.4200    -9.4420 hc         1 F2G       0.016033
     70 H313         1.1200    -3.8050   -10.8650 hc         1 F2G       0.016033
     71 H20          2.3460    -6.4210   -10.0950 ho         1 F2G       0.383000
     72 H151         3.7900    -5.9240    -7.3240 hc         1 F2G       0.043200
     73 H152         4.8360    -4.8480    -8.2600 hc         1 F2G       0.043200
     74 H16          4.7710    -3.2200    -6.3460 h2         1 F2G      -0.002300
     75 H17          3.9610    -5.1090    -4.5470 ho         1 F2G       0.413500
     76 H18          6.5450    -4.3300    -6.0070 ho         1 F2G       0.413500
@<TRIPOS>BOND
     1     1     2 1   
     2     1    32 1   
     3     2     3 1   
     4     2    11 1   
     5     2    33 1   
     6     3     4 1   
     7     4     5 1   
     8     4    34 1   
     9     4    35 1   
    10     5     6 1   
    11     5    10 1   
    12     5    36 1   
    13     6     7 1   
    14     6    37 1   
    15     6    38 1   
    16     7     8 1   
    17     7    39 1   
    18     7    40 1   
    19     8     9 1   
    20     8    41 1   
    21     8    42 1   
    22     9    10 1   
    23     9    43 1   
    24     9    44 1   
    25    10    45 1   
    26    10    46 1   
    27    11    12 1   
    28    11    47 1   
    29    12    13 1   
    30    12    16 1   
    31    12    48 1   
    32    13    14 1   
    33    13    15 1   
    34    13    49 1   
    35    14    50 1   
    36    14    51 1   
    37    14    52 1   
    38    15    53 1   
    39    15    54 1   
    40    15    55 1   
    41    16    17 1   
    42    16    18 1   
    43    16    56 1   
    44    17    57 1   
    45    18    19 1   
    46    18    58 1   
    47    19    20 1   
    48    19    21 1   
    49    19    59 1   
    50    20    60 1   
    51    20    61 1   
    52    20    62 1   
    53    21    22 1   
    54    21    23 1   
    55    21    63 1   
    56    22    64 1   
    57    23    24 1   
    58    23    65 1   
    59    24    25 1   
    60    24    28 1   
    61    24    66 1   
    62    25    26 1   
    63    25    27 1   
    64    25    67 1   
    65    26    68 1   
    66    26    69 1   
    67    26    70 1   
    68    27    71 1   
    69    28    29 1   
    70    28    72 1   
    71    28    73 1   
    72    29    30 1   
    73    29    31 1   
    74    29    74 1   
    75    30    75 1   
    76    31    76 1   
@<TRIPOS>SUBSTRUCTURE
     1 F2G         1 TEMP              0 ****  ****    0 ROOT
