@<TRIPOS>MOLECULE
molecule
   79    81     1     0     0
SMALL
bcc


@<TRIPOS>ATOM
      1 N1           0.0000     0.0000     0.0000 ns         1 F2I      -0.581900
      2 C4          -2.2140     0.9010    -0.4350 ca         1 F2I      -0.146600
      3 C5          -2.7630    -0.3630    -0.3730 ca         1 F2I      -0.081000
      4 C8          -0.7400     1.0400    -0.5370 c          1 F2I       0.686700
      5 C10         -4.5570    -1.7490     2.2930 c3         1 F2I       0.106500
      6 C13         -3.1290    -2.0900     2.7040 c3         1 F2I      -0.107400
      7 C15          1.4490     0.0000     0.0000 c3         1 F2I       0.097700
      8 C17          1.9450     0.0000     1.4590 c3         1 F2I      -0.051100
      9 C20          2.2290    -6.0420    -1.4530 ca         1 F2I      -0.091300
     10 C21          3.4830    -6.5880    -1.1990 ca         1 F2I      -0.091000
     11 C22          3.9500    -7.6380    -1.9880 ca         1 F2I      -0.133000
     12 C24          1.9040    -7.5840    -3.2720 ca         1 F2I       0.044900
     13 C26          2.7080     3.4760     2.7390 ca         1 F2I       0.166900
     14 C28          1.8010     1.3310     2.1550 ca         1 F2I      -0.026300
     15 C           -4.1480    -0.4930    -0.2770 ca         1 F2I      -0.134600
     16 C1          -4.9550     0.6440    -0.2430 ca         1 F2I      -0.083000
     17 C2          -4.3760     1.9120    -0.3060 ca         1 F2I      -0.090300
     18 C3          -2.9900     2.0420    -0.4030 ca         1 F2I      -0.062000
     19 O           -5.0720    -2.3420    -1.2830 o          1 F2I      -0.575100
     20 N           -4.9510    -2.4090     1.0500 n          1 F2I      -0.498800
     21 C9          -5.5630    -3.7220     1.2000 c3         1 F2I       0.106500
     22 C11         -7.0790    -3.6430     1.3430 c3         1 F2I      -0.107400
     23 C12         -7.7240    -5.0090     1.5220 c3         1 F2I      -0.088600
     24 C14         -2.7170    -1.4230     4.0080 c3         1 F2I      -0.088600
     25 O1          -0.2650     2.0460    -1.0560 o          1 F2I      -0.586100
     26 C16          1.9950    -1.1770    -0.8400 c3         1 F2I       0.138100
     27 C18          1.5620    -2.5370    -0.2860 c3         1 F2I       0.149800
     28 N2           2.1000    -3.6200    -1.1420 n7         1 F2I      -0.812200
     29 C19          1.7260    -4.9110    -0.6030 c3         1 F2I       0.203100
     30 C23          3.1610    -8.1360    -3.0250 ca         1 F2I      -0.094000
     31 C25          1.4370    -6.5330    -2.4840 ca         1 F2I      -0.091000
     32 I            0.7290    -8.3280    -4.8160 i          1 F2I      -0.161900
     33 C27          2.8410     2.2460     2.0940 ca         1 F2I      -0.179000
     34 C29          0.6320     1.6150     2.8440 ca         1 F2I      -0.179000
     35 C30          0.5000     2.8450     3.4880 ca         1 F2I       0.166900
     36 C31          1.5370     3.7760     3.4350 ca         1 F2I      -0.215000
     37 F1          -0.6230     3.1320     4.1590 f          1 F2I      -0.130400
     38 O2           1.5360    -1.0460    -2.1850 oh         1 F2I      -0.594800
     39 HN1         -0.4830    -0.7790     0.4020 hn         1 F2I       0.313500
     40 H5          -2.1250    -1.2230    -0.2080 ha         1 F2I       0.135000
     41 H71         -4.9470     3.7530     0.5640 hc         1 F2I       0.048700
     42 H72         -6.2740     2.8330    -0.1570 hc         1 F2I       0.048700
     43 H73         -5.1200     3.6810    -1.1950 hc         1 F2I       0.048700
     44 H101        -5.2320    -2.0580     3.0830 h1         1 F2I       0.053200
     45 H102        -4.6380    -0.6770     2.1620 h1         1 F2I       0.053200
     46 H131        -2.4540    -1.7680     1.9190 hc         1 F2I       0.042700
     47 H132        -3.0450    -3.1630     2.8190 hc         1 F2I       0.042700
     48 H15          1.7830     0.9210    -0.4640 h1         1 F2I       0.094700
     49 H171         2.9910    -0.2820     1.4680 hc         1 F2I       0.053700
     50 H172         1.3820    -0.7410     2.0140 hc         1 F2I       0.053700
     51 H21          4.0930    -6.1980    -0.3930 ha         1 F2I       0.139000
     52 H22          4.9260    -8.0670    -1.7960 ha         1 F2I       0.137000
     53 H1          -6.0310     0.5430    -0.1670 ha         1 F2I       0.144000
     54 H3          -2.5310     3.0220    -0.4530 ha         1 F2I       0.161000
     55 H91         -5.3240    -4.3210     0.3300 h1         1 F2I       0.053200
     56 H92         -5.1530    -4.2020     2.0800 h1         1 F2I       0.053200
     57 H111        -7.3170    -3.0280     2.2030 hc         1 F2I       0.042700
     58 H112        -7.4890    -3.1760     0.4560 hc         1 F2I       0.042700
     59 H121        -7.3510    -5.4690     2.4290 hc         1 F2I       0.036867
     60 H122        -8.7990    -4.8940     1.5920 hc         1 F2I       0.036867
     61 H123        -7.4830    -5.6370     0.6730 hc         1 F2I       0.036867
     62 H141        -2.8990    -0.3570     3.9420 hc         1 F2I       0.036867
     63 H142        -3.2960    -1.8390     4.8240 hc         1 F2I       0.036867
     64 H143        -1.6630    -1.5990     4.1870 hc         1 F2I       0.036867
     65 H16          3.0770    -1.1310    -0.8370 h1         1 F2I       0.049700
     66 H181         0.4800    -2.5930    -0.2720 h1         1 F2I       0.037700
     67 H182         1.9410    -2.6530     0.7220 h1         1 F2I       0.037700
     68 HN2          1.7330    -3.5270    -2.0690 hn         1 F2I       0.372800
     69 H191         2.1390    -5.0090     0.3940 h1         1 F2I       0.035200
     70 H192         0.6460    -4.9680    -0.5430 h1         1 F2I       0.035200
     71 H23          3.5240    -8.9520    -3.6370 ha         1 F2I       0.142000
     72 H25          0.4620    -6.1020    -2.6730 ha         1 F2I       0.144000
     73 H27          3.7480     2.0080     1.5510 ha         1 F2I       0.149500
     74 H29         -0.1710     0.8890     2.8810 ha         1 F2I       0.149500
     75 H31          1.4340     4.7310     3.9360 ha         1 F2I       0.161000
     76 HO2          2.2520    -0.7810    -2.7370 ho         1 F2I       0.412000
     77 F            3.7040     4.3690     2.6880 f          1 F2I      -0.130400
     78 C6          -4.7520    -1.8150    -0.2090 c          1 F2I       0.681700
     79 C7          -5.2380     3.1280    -0.2710 c3         1 F2I      -0.049800
@<TRIPOS>BOND
     1     1     7 1
     2     1     4 1
     3     1    39 1
     4     2     3 ar
     5     2     4 1
     6     2    18 ar
     7     3    15 ar
     8     3    40 1
     9    78    19 2
    10    78    20 1
    11    78    15 1
    12    79    17 1
    13    79    41 1
    14    79    42 1
    15    79    43 1
    16     4    25 2
    17     5    20 1
    18     5     6 1
    19     5    44 1
    20     5    45 1
    21     6    24 1
    22     6    46 1
    23     6    47 1
    24     7     8 1
    25     7    26 1
    26     7    48 1
    27     8    14 1
    28     8    49 1
    29     8    50 1
    30     9    29 1
    31     9    31 ar
    32     9    10 ar
    33    10    11 ar
    34    10    51 1
    35    11    30 ar
    36    11    52 1
    37    12    32 1
    38    12    31 ar
    39    12    30 ar
    40    13    33 ar
    41    13    36 ar
    42    13    77 1
    43    14    34 ar
    44    14    33 ar
    45    15    16 ar
    46    16    17 ar
    47    16    53 1
    48    17    18 ar
    49    18    54 1
    50    20    21 1
    51    21    22 1
    52    21    55 1
    53    21    56 1
    54    22    23 1
    55    22    57 1
    56    22    58 1
    57    23    59 1
    58    23    60 1
    59    23    61 1
    60    24    62 1
    61    24    63 1
    62    24    64 1
    63    26    38 1
    64    26    27 1
    65    26    65 1
    66    27    28 1
    67    27    66 1
    68    27    67 1
    69    28    29 1
    70    28    68 1
    71    29    69 1
    72    29    70 1
    73    30    71 1
    74    31    72 1
    75    33    73 1
    76    34    35 ar
    77    34    74 1
    78    35    37 1
    79    35    36 ar
    80    36    75 1
    81    38    76 1
@<TRIPOS>SUBSTRUCTURE
     1 F2I         1 TEMP              0 ****  ****    0 ROOT
