@<TRIPOS>MOLECULE
F2I
   79    81     1     0     0
SMALL
bcc


@<TRIPOS>ATOM
      1 N1           0.0000     0.0000     0.0000 ns         1 F2I      -0.208900
      2 C4          -2.2140     0.9010    -0.4350 ca         1 F2I      -0.163600
      3 C5          -2.7630    -0.3630    -0.3730 ca         1 F2I      -0.058000
      4 C8          -0.7400     1.0400    -0.5370 c          1 F2I       0.616700
      5 C10         -4.5570    -1.7490     2.2930 c3         1 F2I       0.047000
      6 C13         -3.1290    -2.0900     2.7040 c3         1 F2I      -0.053400
      7 C15          1.4490     0.0000     0.0000 c3         1 F2I      -0.007300
      8 C17          1.9450     0.0000     1.4590 c3         1 F2I       0.013900
      9 C20          2.2290    -6.0420    -1.4530 ca         1 F2I      -0.094300
     10 C21          3.4830    -6.5880    -1.1990 ca         1 F2I      -0.076000
     11 C22          3.9500    -7.6380    -1.9880 ca         1 F2I      -0.097000
     12 C24          1.9040    -7.5840    -3.2720 ca         1 F2I       0.192900
     13 C26          2.7080     3.4760     2.7390 ca         1 F2I       0.138400
     14 C28          1.8010     1.3310     2.1550 ca         1 F2I      -0.034300
     15 C           -4.1480    -0.4930    -0.2770 ca         1 F2I      -0.147600
     16 C1          -4.9550     0.6440    -0.2430 ca         1 F2I      -0.052000
     17 C2          -4.3760     1.9120    -0.3060 ca         1 F2I      -0.098300
     18 C3          -2.9900     2.0420    -0.4030 ca         1 F2I      -0.028000
     19 O           -5.0720    -2.3420    -1.2830 o          1 F2I      -0.611100
     20 N           -4.9510    -2.4090     1.0500 n          1 F2I      -0.169800
     21 C9          -5.5630    -3.7220     1.2000 c3         1 F2I       0.047000
     22 C11         -7.0790    -3.6430     1.3430 c3         1 F2I      -0.053400
     23 C12         -7.7240    -5.0090     1.5220 c3         1 F2I       0.013900
     24 C14         -2.7170    -1.4230     4.0080 c3         1 F2I       0.013900
     25 O1          -0.2650     2.0460    -1.0560 o          1 F2I      -0.623100
     26 C16          1.9950    -1.1770    -0.8400 c3         1 F2I       0.182100
     27 C18          1.5620    -2.5370    -0.2860 c3         1 F2I       0.124800
     28 N2           2.1000    -3.6200    -1.1420 n7         1 F2I      -0.578200
     29 C19          1.7260    -4.9110    -0.6030 c3         1 F2I       0.201100
     30 C23          3.1610    -8.1360    -3.0250 ca         1 F2I      -0.081000
     31 C25          1.4370    -6.5330    -2.4840 ca         1 F2I      -0.077000
     32 I            0.7290    -8.3280    -4.8160 i          1 F2I      -0.282900
     33 C27          2.8410     2.2460     2.0940 ca         1 F2I      -0.143000
     34 C29          0.6320     1.6150     2.8440 ca         1 F2I      -0.143000
     35 C30          0.5000     2.8450     3.4880 ca         1 F2I       0.138400
     36 C31          1.5370     3.7760     3.4350 ca         1 F2I      -0.171000
     37 F1          -0.6230     3.1320     4.1590 f          1 F2I      -0.118900
     38 O2           1.5360    -1.0460    -2.1850 oh         1 F2I      -0.578800
     39 HN1         -0.4830    -0.7790     0.4020 hn         1 F2I       0.181500
     40 H5          -2.1250    -1.2230    -0.2080 ha         1 F2I       0.111000
     41 H71         -4.9470     3.7530     0.5640 hc         1 F2I       0.012033
     42 H72         -6.2740     2.8330    -0.1570 hc         1 F2I       0.012033
     43 H73         -5.1200     3.6810    -1.1950 hc         1 F2I       0.012033
     44 H101        -5.2320    -2.0580     3.0830 h1         1 F2I       0.027700
     45 H102        -4.6380    -0.6770     2.1620 h1         1 F2I       0.027700
     46 H131        -2.4540    -1.7680     1.9190 hc         1 F2I       0.014950
     47 H132        -3.0450    -3.1630     2.8190 hc         1 F2I       0.014950
     48 H15          1.7830     0.9210    -0.4640 h1         1 F2I       0.069700
     49 H171         2.9910    -0.2820     1.4680 hc         1 F2I       0.024700
     50 H172         1.3820    -0.7410     2.0140 hc         1 F2I       0.024700
     51 H21          4.0930    -6.1980    -0.3930 ha         1 F2I       0.111000
     52 H22          4.9260    -8.0670    -1.7960 ha         1 F2I       0.108000
     53 H1          -6.0310     0.5430    -0.1670 ha         1 F2I       0.114000
     54 H3          -2.5310     3.0220    -0.4530 ha         1 F2I       0.131000
     55 H91         -5.3240    -4.3210     0.3300 h1         1 F2I       0.027700
     56 H92         -5.1530    -4.2020     2.0800 h1         1 F2I       0.027700
     57 H111        -7.3170    -3.0280     2.2030 hc         1 F2I       0.014950
     58 H112        -7.4890    -3.1760     0.4560 hc         1 F2I       0.014950
     59 H121        -7.3510    -5.4690     2.4290 hc         1 F2I       0.003033
     60 H122        -8.7990    -4.8940     1.5920 hc         1 F2I       0.003033
     61 H123        -7.4830    -5.6370     0.6730 hc         1 F2I       0.003033
     62 H141        -2.8990    -0.3570     3.9420 hc         1 F2I       0.003033
     63 H142        -3.2960    -1.8390     4.8240 hc         1 F2I       0.003033
     64 H143        -1.6630    -1.5990     4.1870 hc         1 F2I       0.003033
     65 H16          3.0770    -1.1310    -0.8370 h1         1 F2I       0.015700
     66 H181         0.4800    -2.5930    -0.2720 h1         1 F2I       0.012700
     67 H182         1.9410    -2.6530     0.7220 h1         1 F2I       0.012700
     68 HN2          1.7330    -3.5270    -2.0690 hn         1 F2I       0.271800
     69 H191         2.1390    -5.0090     0.3940 h1         1 F2I       0.007700
     70 H192         0.6460    -4.9680    -0.5430 h1         1 F2I       0.007700
     71 H23          3.5240    -8.9520    -3.6370 ha         1 F2I       0.117000
     72 H25          0.4620    -6.1020    -2.6730 ha         1 F2I       0.120000
     73 H27          3.7480     2.0080     1.5510 ha         1 F2I       0.125000
     74 H29         -0.1710     0.8890     2.8810 ha         1 F2I       0.125000
     75 H31          1.4340     4.7310     3.9360 ha         1 F2I       0.135000
     76 HO2          2.2520    -0.7810    -2.7370 ho         1 F2I       0.401000
     77 F            3.7040     4.3690     2.6880 f          1 F2I      -0.118900
     78 C6          -4.7520    -1.8150    -0.2090 c          1 F2I       0.624700
     79 C7          -5.2380     3.1280    -0.2710 c3         1 F2I       0.061200
@<TRIPOS>BOND
     1     1     4 1   
     2     1     7 1   
     3     1    39 1   
     4     2     3 ar  
     5     2     4 1   
     6     2    18 ar  
     7     3    15 ar  
     8     3    40 1   
     9     4    25 2   
    10     5     6 1   
    11     5    20 1   
    12     5    44 1   
    13     5    45 1   
    14     6    24 1   
    15     6    46 1   
    16     6    47 1   
    17     7     8 1   
    18     7    26 1   
    19     7    48 1   
    20     8    14 1   
    21     8    49 1   
    22     8    50 1   
    23     9    10 ar  
    24     9    29 1   
    25     9    31 ar  
    26    10    11 ar  
    27    10    51 1   
    28    11    30 ar  
    29    11    52 1   
    30    12    30 ar  
    31    12    31 ar  
    32    12    32 1   
    33    13    33 ar  
    34    13    36 ar  
    35    13    77 1   
    36    14    33 ar  
    37    14    34 ar  
    38    15    16 ar  
    39    15    78 1   
    40    16    17 ar  
    41    16    53 1   
    42    17    18 ar  
    43    17    79 1   
    44    18    54 1   
    45    19    78 2   
    46    20    21 1   
    47    20    78 1   
    48    21    22 1   
    49    21    55 1   
    50    21    56 1   
    51    22    23 1   
    52    22    57 1   
    53    22    58 1   
    54    23    59 1   
    55    23    60 1   
    56    23    61 1   
    57    24    62 1   
    58    24    63 1   
    59    24    64 1   
    60    26    27 1   
    61    26    38 1   
    62    26    65 1   
    63    27    28 1   
    64    27    66 1   
    65    27    67 1   
    66    28    29 1   
    67    28    68 1   
    68    29    69 1   
    69    29    70 1   
    70    30    71 1   
    71    31    72 1   
    72    33    73 1   
    73    34    35 ar  
    74    34    74 1   
    75    35    36 ar  
    76    35    37 1   
    77    36    75 1   
    78    38    76 1   
    79    41    79 1   
    80    42    79 1   
    81    43    79 1   
@<TRIPOS>SUBSTRUCTURE
     1 F2I         1 TEMP              0 ****  ****    0 ROOT
