@<TRIPOS>MOLECULE
molecule
   43    46     1     0     0
SMALL
bcc


@<TRIPOS>ATOM
      1 C02          0.0000     0.0000     0.0000 cc         1 F2J      -0.097000
      2 C03          1.3630     0.0000     0.0000 cc         1 F2J      -0.092000
      3 C04          1.9090     0.0000     1.2650 cc         1 F2J      -0.167000
      4 C05          1.0220     0.0000     2.2630 cd         1 F2J      -0.095100
      5 C06         -0.8540    -0.0000    -1.1970 ce         1 F2J       0.720800
      6 C11         -3.0410    -0.1300    -2.1990 ca         1 F2J       0.123600
      7 C12         -2.6780    -1.0110    -3.2170 ca         1 F2J      -0.154000
      8 C13         -3.4690    -1.1540    -4.3340 ca         1 F2J      -0.117000
      9 C14         -4.6410    -0.4160    -4.4580 ca         1 F2J      -0.053200
     10 C15         -5.0110     0.4750    -3.4330 ca         1 F2J      -0.079800
     11 C16         -4.2020     0.6120    -2.3030 ca         1 F2J      -0.119000
     12 C17         -6.2710     1.0840    -3.8620 cc         1 F2J      -0.208200
     13 C18         -6.5770     0.5570    -5.0580 cd         1 F2J      -0.088100
     14 C22         -5.6720    -0.9560    -9.1700 c3         1 F2J       0.158800
     15 C23         -5.6060    -0.1490    -7.8700 c3         1 F2J      -0.092400
     16 C24         -5.6190    -1.1100    -6.6780 c3         1 F2J       0.056000
     17 C25         -6.8800    -1.9740    -6.7430 c3         1 F2J      -0.092400
     18 C26         -6.9090    -2.7280    -8.0740 c3         1 F2J       0.158800
     19 N07         -2.2290    -0.0000    -1.0650 nu         1 F2J      -0.784600
     20 N08         -0.3110    -0.0010    -2.3860 n2         1 F2J      -0.881100
     21 N19         -5.6150    -0.3420    -5.4300 na         1 F2J      -0.068400
     22 N21         -6.8970    -1.7650    -9.1830 n7         1 F2J      -0.820200
     23 S01         -0.5750    -0.0070     1.6630 ss         1 F2J      -0.113800
     24 H1           1.9580    -0.0000    -0.9050 ha         1 F2J       0.175000
     25 H2           2.9780     0.0020     1.4370 ha         1 F2J       0.151000
     26 H3           1.2810    -0.0000     3.3150 h4         1 F2J       0.172000
     27 H4          -1.7660    -1.5890    -3.1270 ha         1 F2J       0.151000
     28 H5          -3.1770    -1.8420    -5.1190 ha         1 F2J       0.128000
     29 H6          -4.4840     1.2970    -1.5120 ha         1 F2J       0.135000
     30 H7          -6.8480     1.8220    -3.3170 ha         1 F2J       0.155000
     31 H8          -7.4550     0.8060    -5.6410 h4         1 F2J       0.168000
     32 H10         -4.8090    -1.6070    -9.2320 h1         1 F2J       0.035950
     33 H11         -6.4640     0.5100    -7.8120 hc         1 F2J       0.060700
     34 H12         -4.6940     0.4340    -7.8540 hc         1 F2J       0.060700
     35 H13         -4.7430    -1.7460    -6.7200 h1         1 F2J       0.069700
     36 H14         -6.8720    -2.6860    -5.9260 hc         1 F2J       0.060700
     37 H15         -7.7560    -1.3410    -6.6680 hc         1 F2J       0.060700
     38 H16         -7.8100    -3.3280    -8.1290 h1         1 F2J       0.035950
     39 H17         -6.0380    -3.3690    -8.1440 h1         1 F2J       0.035950
     40 H18         -2.6450     0.1470    -0.1670 hn         1 F2J       0.438800
     41 H19         -0.8920    -0.0010    -3.2020 hn         1 F2J       0.416400
     42 H20         -6.9620    -2.2570   -10.0530 hn         1 F2J       0.357800
     43 H9          -5.6800    -0.2770   -10.0140 h1         1 F2J       0.035950
@<TRIPOS>BOND
     1     3     4 2
     2     3     2 1
     3     4    23 1
     4     2     1 2
     5    23     1 1
     6     1     5 1
     7    20     5 2
     8     5    19 1
     9    19     6 1
    10     7     6 ar
    11     7     8 ar
    12     6    11 ar
    13     8     9 ar
    14    11    10 ar
    15     9    10 ar
    16     9    21 1
    17    10    12 1
    18    21    16 1
    19    21    13 1
    20    16    15 1
    21    16    17 1
    22    12    13 2
    23    15    14 1
    24    14    22 1
    25    17    18 1
    26    18    22 1
    27     2    24 1
    28     3    25 1
    29     4    26 1
    30     7    27 1
    31     8    28 1
    32    11    29 1
    33    12    30 1
    34    13    31 1
    35    14    43 1
    36    14    32 1
    37    15    33 1
    38    15    34 1
    39    16    35 1
    40    17    36 1
    41    17    37 1
    42    18    38 1
    43    18    39 1
    44    19    40 1
    45    20    41 1
    46    22    42 1
@<TRIPOS>SUBSTRUCTURE
     1 F2J         1 TEMP              0 ****  ****    0 ROOT
