@<TRIPOS>MOLECULE
molecule
   32    31     1     0     0
SMALL
bcc


@<TRIPOS>ATOM
      1 P1           0.0000     0.0000     0.0000 p5         1 F2P       1.180900
      2 O1           1.6100     0.0000     0.0000 os         1 F2P      -0.556200
      3 C1           2.0230     0.0000     1.3680 c3         1 F2P       0.131400
      4 C2           3.5510     0.0000     1.4390 c3         1 F2P       0.122100
      5 O2           4.0540     1.2220     0.8930 oh         1 F2P      -0.605800
      6 C3           3.9930    -0.1260     2.8980 c3         1 F2P       0.146100
      7 O3           3.4920    -1.3460     3.4450 oh         1 F2P      -0.583800
      8 C4           5.5230    -0.1240     2.9700 c3         1 F2P       0.146100
      9 O4           6.0240     1.0970     2.4240 oh         1 F2P      -0.583800
     10 C5           5.9650    -0.2500     4.4290 c3         1 F2P       0.122100
     11 O5           5.4620    -1.4720     4.9750 oh         1 F2P      -0.605800
     12 C6           7.4930    -0.2500     4.5010 c3         1 F2P       0.131400
     13 O6           7.9060    -0.2500     5.8690 os         1 F2P      -0.556200
     14 O11         -0.5360     0.1320    -1.5120 o          1 F2P      -0.926167
     15 O12         -0.5360    -1.3770     0.6410 o          1 F2P      -0.926167
     16 O13         -0.4940     1.1430     0.8000 o          1 F2P      -0.926167
     17 P6           9.5160    -0.2500     5.8690 p5         1 F2P       1.180900
     18 O61         10.0100    -1.3930     5.0680 o          1 F2P      -0.926167
     19 O62         10.0520     1.1270     5.2280 o          1 F2P      -0.926167
     20 O63         10.0520    -0.3820     7.3810 o          1 F2P      -0.926167
     21 H1C1         1.6380    -0.8840     1.8610 h1         1 F2P       0.045700
     22 H1C2         1.6380     0.8850     1.8610 h1         1 F2P       0.045700
     23 H2           3.9390    -0.8360     0.8710 h1         1 F2P       0.026700
     24 HA           4.1220     1.1430    -0.0440 ho         1 F2P       0.392000
     25 H3           3.6050     0.7110     3.4670 h1         1 F2P       0.040700
     26 HB           2.7750    -1.1580     4.0290 ho         1 F2P       0.393000
     27 H4           5.9110    -0.9600     2.4020 h1         1 F2P       0.040700
     28 HC           6.7410     0.9090     1.8400 ho         1 F2P       0.393000
     29 H5           5.5770     0.5870     4.9980 h1         1 F2P       0.026700
     30 HD           5.3930    -1.3930     5.9120 ho         1 F2P       0.392000
     31 H6C1         7.8780    -1.1340     4.0080 h1         1 F2P       0.045700
     32 H6C2         7.8780     0.6350     4.0070 h1         1 F2P       0.045700
@<TRIPOS>BOND
     1     1     2 1
     2     1    14 1
     3     1    15 1
     4     1    16 1
     5     2     3 1
     6     3     4 1
     7     3    21 1
     8     3    22 1
     9     4     5 1
    10     4     6 1
    11     4    23 1
    12     5    24 1
    13     6     7 1
    14     6     8 1
    15     6    25 1
    16     7    26 1
    17     8     9 1
    18     8    10 1
    19     8    27 1
    20     9    28 1
    21    10    11 1
    22    10    12 1
    23    10    29 1
    24    11    30 1
    25    12    13 1
    26    12    31 1
    27    12    32 1
    28    13    17 1
    29    17    18 1
    30    17    19 1
    31    17    20 1
@<TRIPOS>SUBSTRUCTURE
     1 F2P         1 TEMP              0 ****  ****    0 ROOT
