@<TRIPOS>MOLECULE
F2P
   32    31     1     0     0
SMALL
bcc


@<TRIPOS>ATOM
      1 P1         -0.0280    0.0110   -0.3990 p5        1 F2P      1.324900
      2 O1          1.3900    0.6640    0.3670 os        1 F2P     -0.588200
      3 C1          1.8280    0.0480    1.5150 c3        1 F2P      0.199900
      4 C2          3.3790   -0.0690    1.4970 c3        1 F2P      0.119600
      5 O2          3.9660    0.8950    0.6340 oh        1 F2P     -0.674800
      6 C3          4.0240    0.1280    2.8940 c3        1 F2P      0.108100
      7 O3          3.1910   -0.5690    3.8080 oh        1 F2P     -0.610800
      8 C4          5.4870   -0.3810    2.9820 c3        1 F2P      0.108100
      9 O4          6.3190    0.2950    2.0510 oh        1 F2P     -0.610800
     10 C5          6.1400   -0.1590    4.3730 c3        1 F2P      0.119600
     11 O5          5.5380   -1.0870    5.2640 oh        1 F2P     -0.674800
     12 C6          7.6880   -0.3050    4.3510 c3        1 F2P      0.199900
     13 O6          8.1200   -0.9130    5.5070 os        1 F2P     -0.588200
     14 O11         0.1210    0.5580   -1.7950 o         1 F2P     -0.939500
     15 O12         0.1510   -1.4780   -0.2560 o         1 F2P     -0.939500
     16 O13        -1.1590    0.5990    0.4040 o         1 F2P     -0.939500
     17 P6          9.5520   -0.2740    6.2590 p5        1 F2P      1.324900
     18 O61        10.6690   -0.8960    5.4620 o         1 F2P     -0.939500
     19 O62         9.4000    1.2160    6.0930 o         1 F2P     -0.939500
     20 O63         9.3960   -0.7960    7.6640 o         1 F2P     -0.939500
     21 H1C1        1.3850   -0.9810    1.6130 h1        1 F2P      0.013700
     22 H1C2        1.5530    0.6630    2.4220 h1        1 F2P      0.013700
     23 H2          3.6740   -1.0830    1.1070 h1        1 F2P      0.022200
     24 HA          3.2590    1.2520    0.0710 ho        1 F2P      0.451000
     25 H3          4.0170    1.2260    3.1440 h1        1 F2P      0.027700
     26 HB          3.6470   -0.5770    4.6580 ho        1 F2P      0.411000
     27 H4          5.4910   -1.4840    2.7530 h1        1 F2P      0.027700
     28 HC          5.8510    0.3080    1.2080 ho        1 F2P      0.411000
     29 H5          5.8650    0.8700    4.7350 h1        1 F2P      0.022200
     30 HD          6.2420   -1.4550    5.8230 ho        1 F2P      0.451000
     31 H6C1        7.9490   -0.9380    3.4520 h1        1 F2P      0.013700
     32 H6C2        8.1500    0.7140    4.2370 h1        1 F2P      0.013700
@<TRIPOS>BOND
     1    1    2 1   
     2    1   14 1   
     3    1   15 1   
     4    1   16 1   
     5    2    3 1   
     6    3    4 1   
     7    3   21 1   
     8    3   22 1   
     9    4    5 1   
    10    4    6 1   
    11    4   23 1   
    12    5   24 1   
    13    6    7 1   
    14    6    8 1   
    15    6   25 1   
    16    7   26 1   
    17    8    9 1   
    18    8   10 1   
    19    8   27 1   
    20    9   28 1   
    21   10   11 1   
    22   10   12 1   
    23   10   29 1   
    24   11   30 1   
    25   12   13 1   
    26   12   31 1   
    27   12   32 1   
    28   13   17 1   
    29   17   18 1   
    30   17   19 1   
    31   17   20 1   
@<TRIPOS>SUBSTRUCTURE
     1 F2P         1 TEMP              0 ****  ****    0 ROOT
