@<TRIPOS>MOLECULE
molecule
   89    94     1     0     0
SMALL
bcc


@<TRIPOS>ATOM
      1 C11          0.0000     0.0000     0.0000 ca         1 F2S      -0.128600
      2 C12          1.3990     0.0000     0.0000 ca         1 F2S      -0.150000
      3 C13          2.0860     0.0000     1.1980 ca         1 F2S       0.095100
      4 C14          1.3850     0.0010     2.4050 ca         1 F2S       0.155600
      5 C15         -0.0050    -0.0000     2.4040 ca         1 F2S      -0.116000
      6 C16         -0.6960     0.0060     1.2120 ca         1 F2S      -0.128000
      7 C27         -0.1790     1.9470     9.2430 c          1 F2S       0.721100
      8 N1          -0.1140     2.4070     8.0020 n          1 F2S      -0.355000
      9 C28         -0.6820     3.7360     7.7640 c3         1 F2S       0.087300
     10 C19          0.4390     1.7560     6.9000 ca         1 F2S      -0.254000
     11 C18         -0.1840     1.8390     5.6620 ca         1 F2S       0.478200
     12 N4           0.3760     1.2470     4.6170 nb         1 F2S      -0.784000
     13 C26          0.3480     0.6600     9.7110 ca         1 F2S      -0.157600
     14 C25         -0.3680    -0.0820    10.6560 ca         1 F2S      -0.060000
     15 C24          0.1370    -1.2750    11.1240 ca         1 F2S      -0.150000
     16 C23          1.3570    -1.7460    10.6680 ca         1 F2S      -0.096000
     17 C22          2.0710    -1.0320     9.7250 ca         1 F2S      -0.159000
     18 C21          1.5670     0.1620     9.2300 ca         1 F2S       0.195600
     19 N2           2.2460     0.8350     8.2190 na         1 F2S      -0.737700
     20 C29          3.6040     1.3380     8.4420 c3         1 F2S       0.259500
     21 C20          1.6190     1.0190     7.0000 ca         1 F2S       0.750200
     22 N3           2.1330     0.4700     5.9040 nb         1 F2S      -0.800000
     23 C17          1.5160     0.5860     4.7370 ca         1 F2S       0.935900
     24 N5           2.0800    -0.0010     3.6140 nu         1 F2S      -0.739300
     25 C2          -2.2050    -1.7420    -0.3810 c3         1 F2S       0.099500
     26 C1          -2.3290    -3.1390    -0.9990 c3         1 F2S      -0.096900
     27 C3          -2.6270    -0.7230    -2.6560 c3         1 F2S       0.099500
     28 C4          -2.7460    -2.1300    -3.2490 c3         1 F2S      -0.096900
     29 C           -3.2950    -3.0830    -2.1840 c3         1 F2S       0.172500
     30 C32          4.5600     0.6880     7.4390 c3         1 F2S      -0.104400
     31 O2           3.4460    -0.0000     1.2020 os         1 F2S      -0.337900
     32 C5           4.0990    -0.0010    -0.0700 c3         1 F2S       0.128700
     33 C6          -0.7380     0.0010    -1.2770 c          1 F2S       0.680700
     34 O3          -0.3730     0.7170    -2.1900 o          1 F2S      -0.609100
     35 N6          -1.8170    -0.7920    -1.4320 n          1 F2S      -0.486800
     36 N7          -3.4420    -4.4270    -2.7590 n3         1 F2S      -0.730600
     37 C30         -4.2950    -4.3980    -3.9560 c3         1 F2S       0.159800
     38 C33         -4.3580    -5.7990    -4.5690 c3         1 F2S       0.163800
     39 N8          -4.8840    -6.7420    -3.5730 n3         1 F2S      -0.734600
     40 C35         -4.0310    -6.7720    -2.3770 c3         1 F2S       0.163800
     41 C36         -3.9680    -5.3720    -1.7640 c3         1 F2S       0.159800
     42 C37         -5.0310    -8.0870    -4.1480 c3         1 F2S       0.152100
     43 C7           3.6220     2.8570     8.2520 c3         1 F2S      -0.111100
     44 H1           1.9430    -0.0020    -0.9370 ha         1 F2S       0.156000
     45 H2          -0.5470     0.0020     3.3420 ha         1 F2S       0.171000
     46 H3          -1.7790     0.0060     1.2140 ha         1 F2S       0.140000
     47 H4          -0.2330     4.1670     6.8770 h1         1 F2S       0.051700
     48 H5          -1.7530     3.6520     7.6220 h1         1 F2S       0.051700
     49 H6          -0.4800     4.3740     8.6160 h1         1 F2S       0.051700
     50 H7          -1.1180     2.3780     5.5530 h4         1 F2S       0.039100
     51 H8          -1.3230     0.2810    11.0180 ha         1 F2S       0.152000
     52 H9          -0.4170    -1.8410    11.8630 ha         1 F2S       0.137000
     53 H10          1.7460    -2.6860    11.0410 ha         1 F2S       0.135000
     54 H11          3.0250    -1.4050     9.3720 ha         1 F2S       0.151000
     55 H12          3.9180     1.0970     9.4500 h1         1 F2S       0.067700
     56 H13          2.9620    -0.4670     3.6830 hn         1 F2S       0.477800
     57 H14         -3.1580    -1.4460     0.0410 h1         1 F2S       0.059950
     58 H15         -1.4470    -1.7550     0.3930 h1         1 F2S       0.059950
     59 H16         -2.7090    -3.8290    -0.2560 hc         1 F2S       0.058950
     60 H17         -1.3560    -3.4680    -1.3430 hc         1 F2S       0.058950
     61 H18         -2.1470    -0.0680    -3.3720 h1         1 F2S       0.059950
     62 H19         -3.6140    -0.3470    -2.4160 h1         1 F2S       0.059950
     63 H20         -1.7680    -2.4710    -3.5670 hc         1 F2S       0.058950
     64 H21         -3.4210    -2.1090    -4.0960 hc         1 F2S       0.058950
     65 H22         -4.2590    -2.7240    -1.8440 h1         1 F2S       0.025700
     66 H23          5.4360    -1.2490     7.1220 hc         1 F2S       0.035033
     67 H24          3.6950    -1.2800     7.4360 hc         1 F2S       0.035033
     68 H25          4.8280    -0.9840     8.7620 hc         1 F2S       0.035033
     69 H26          4.1960     0.8560     6.4320 hc         1 F2S       0.058700
     70 H27          5.5460     1.1240     7.5440 hc         1 F2S       0.058700
     71 H28          3.8080    -0.8850    -0.6250 h1         1 F2S       0.045367
     72 H29          5.1720    -0.0030     0.0750 h1         1 F2S       0.045367
     73 H30          3.8110     0.8840    -0.6250 h1         1 F2S       0.045367
     74 H32         -5.2930    -4.0810    -3.6790 h1         1 F2S       0.042450
     75 H33         -3.8790    -3.7070    -4.6790 h1         1 F2S       0.042450
     76 H34         -5.0110    -5.7860    -5.4320 h1         1 F2S       0.040450
     77 H35         -3.3630    -6.1070    -4.8660 h1         1 F2S       0.040450
     78 H37         -4.4490    -7.4630    -1.6540 h1         1 F2S       0.040450
     79 H38         -3.0330    -7.0900    -2.6530 h1         1 F2S       0.040450
     80 H39         -4.9630    -5.0640    -1.4660 h1         1 F2S       0.042450
     81 H40         -3.3140    -5.3860    -0.9000 h1         1 F2S       0.042450
     82 H41         -4.0610    -8.4560    -4.4570 h1         1 F2S       0.032033
     83 H42         -5.4510    -8.7530    -3.4040 h1         1 F2S       0.032033
     84 H43         -5.6900    -8.0420    -5.0060 h1         1 F2S       0.032033
     85 H44          3.4380     3.0930     7.2110 hc         1 F2S       0.044367
     86 H45          2.8510     3.3060     8.8650 hc         1 F2S       0.044367
     87 H46          4.5890     3.2460     8.5450 hc         1 F2S       0.044367
     88 O1          -0.7210     2.6560    10.0690 o          1 F2S      -0.645500
     89 C31          4.6350    -0.8160     7.7100 c3         1 F2S      -0.090100
@<TRIPOS>BOND
     1    32    31 1
     2    31     3 1
     3     3     2 ar
     4     3     4 ar
     5    12    11 ar
     6    12    23 ar
     7    24     4 1
     8    24    23 1
     9     2     1 ar
    10    11    10 ar
    11     4     5 ar
    12    23    22 ar
    13    28    29 1
    14    28    27 1
    15    37    38 1
    16    37    36 1
    17    29    36 1
    18    29    26 1
    19     1    33 1
    20     1     6 ar
    21     9     8 1
    22    10     8 1
    23    10    21 ar
    24     5     6 ar
    25    25    35 1
    26    25    26 1
    27    33    35 1
    28    33    34 2
    29    35    27 1
    30    22    21 ar
    31    38    39 1
    32    36    41 1
    33     8     7 1
    34    41    40 1
    35    39    40 1
    36    39    42 1
    37    21    19 1
    38     7    88 2
    39     7    13 1
    40    19    18 1
    41    19    20 1
    42    13    18 ar
    43    13    14 ar
    44    18    17 ar
    45    14    15 ar
    46    20    43 1
    47    20    30 1
    48    17    16 ar
    49    15    16 ar
    50    30    89 1
    51     2    44 1
    52     5    45 1
    53     6    46 1
    54     9    47 1
    55     9    48 1
    56     9    49 1
    57    11    50 1
    58    14    51 1
    59    15    52 1
    60    16    53 1
    61    17    54 1
    62    20    55 1
    63    24    56 1
    64    25    57 1
    65    25    58 1
    66    26    59 1
    67    26    60 1
    68    27    61 1
    69    27    62 1
    70    28    63 1
    71    28    64 1
    72    29    65 1
    73    89    66 1
    74    89    67 1
    75    89    68 1
    76    30    69 1
    77    30    70 1
    78    32    71 1
    79    32    72 1
    80    32    73 1
    81    37    74 1
    82    37    75 1
    83    38    76 1
    84    38    77 1
    85    40    78 1
    86    40    79 1
    87    41    80 1
    88    41    81 1
    89    42    82 1
    90    42    83 1
    91    42    84 1
    92    43    85 1
    93    43    86 1
    94    43    87 1
@<TRIPOS>SUBSTRUCTURE
     1 F2S         1 TEMP              0 ****  ****    0 ROOT
