@<TRIPOS>MOLECULE
molecule
   30    31     1     0     0
SMALL
bcc


@<TRIPOS>ATOM
      1 O01          0.0000     0.0000     0.0000 oh         1 F2U      -0.533800
      2 C03          1.4290     0.0000     0.0000 c3         1 F2U       0.110400
      3 C06          1.9400     0.0000     1.4420 c3         1 F2U       0.057100
      4 O08          1.6630    -1.2690     2.0730 os         1 F2U      -0.371600
      5 C09          3.4790     0.1260     1.4670 c3         1 F2U       0.118100
      6 O11          3.8670     1.4790     1.7130 oh         1 F2U      -0.643800
      7 C13          3.9110    -0.7830     2.6400 c3         1 F2U       0.378600
      8 F14          4.7370    -1.8150     2.1830 f          1 F2U      -0.201300
      9 F15          4.5640    -0.0340     3.6250 f          1 F2U      -0.201300
     10 C16          2.5810    -1.3500     3.1850 c3         1 F2U       0.283500
     11 N18          2.7540    -2.7430     3.6030 n          1 F2U      -0.355000
     12 C19          3.1100    -3.6640     2.6930 c          1 F2U       0.842500
     13 O20          3.2800    -3.3190     1.5390 o          1 F2U      -0.624500
     14 N21          3.2840    -4.9560     3.0200 ns         1 F2U      -0.564500
     15 C23          3.1020    -5.3670     4.2920 c          1 F2U       0.677700
     16 O24          3.2590    -6.5360     4.5960 o          1 F2U      -0.599500
     17 C25          2.7120    -4.3750     5.3060 cc         1 F2U      -0.113900
     18 C26          2.5550    -3.0770     4.9120 cd         1 F2U       0.042600
     19 C28          2.5120    -4.7590     6.6700 cg         1 F2U      -0.146300
     20 C29          2.3600    -5.0900     7.7870 c1         1 F2U      -0.104500
     21 H1          -0.0920    -0.1520    -0.9260 ho         1 F2U       0.403000
     22 H2           1.9300    -0.9090    -0.3100 h1         1 F2U       0.059700
     23 H3           2.0560     0.8650    -0.1820 h1         1 F2U       0.059700
     24 H4           1.4890     0.8060     2.0080 h1         1 F2U       0.070700
     25 H5           3.9020    -0.2340     0.5360 h1         1 F2U       0.085700
     26 H6           3.5230     2.2310     1.2580 ho         1 F2U       0.446000
     27 H7           2.2250    -0.7440     4.0090 h2         1 F2U       0.097700
     28 H8           3.7060    -5.7840     2.6480 hn         1 F2U       0.383500
     29 H9           2.1820    -2.3510     5.6250 h4         1 F2U       0.174000
     30 H10          2.1120    -4.9660     8.8340 ha         1 F2U       0.169500
@<TRIPOS>BOND
     1    20    19 3
     2    19    17 1
     3    17    18 2
     4    17    15 1
     5    16    15 2
     6     2     1 1
     7     2     3 1
     8    18    11 1
     9    15    14 1
    10     4     3 1
    11     4    10 1
    12     3     5 1
    13    11    10 1
    14    11    12 1
    15    14    12 1
    16    10     7 1
    17    12    13 2
    18     5     7 1
    19     5     6 1
    20     8     7 1
    21     7     9 1
    22     1    21 1
    23     2    22 1
    24     2    23 1
    25     3    24 1
    26     5    25 1
    27     6    26 1
    28    10    27 1
    29    14    28 1
    30    18    29 1
    31    20    30 1
@<TRIPOS>SUBSTRUCTURE
     1 F2U         1 TEMP              0 ****  ****    0 ROOT
