@<TRIPOS>MOLECULE
molecule
   33    34     1     0     0
SMALL
bcc


@<TRIPOS>ATOM
      1 CAM          0.0000     0.0000     0.0000 c3         1 F2W       0.120700
      2 OAK          1.4290     0.0000     0.0000 os         1 F2W      -0.289900
      3 CAB          2.0460     0.0000     1.2120 ca         1 F2W       0.162100
      4 CAA          1.2950    -0.0010     2.3740 ca         1 F2W      -0.181000
      5 CAF          1.9200    -0.0000     3.6120 ca         1 F2W      -0.096300
      6 CAJ          1.0630    -0.0030     4.8520 c3         1 F2W      -0.051100
      7 CAI          1.9050     0.4000     6.0640 c3         1 F2W       0.105800
      8 NAH          3.1190    -0.4300     6.0880 nx         1 F2W      -0.653400
      9 CAO          3.7930    -0.2770     7.3840 c3         1 F2W       0.089100
     10 CAG          4.0160     0.0050     5.0140 c3         1 F2W       0.173100
     11 CAE          3.2980     0.0020     3.6900 ca         1 F2W      -0.156300
     12 CAD          4.0550     0.0010     2.5270 ca         1 F2W      -0.172000
     13 CAC          3.4350    -0.0050     1.2900 ca         1 F2W       0.147100
     14 OAL          4.1830    -0.0070     0.1530 os         1 F2W      -0.290900
     15 CAN          5.6030    -0.0010     0.3100 c3         1 F2W       0.122700
     16 H1          -0.3610    -0.8850     0.5110 h1         1 F2W       0.052700
     17 H2          -0.3610    -0.0000    -1.0210 h1         1 F2W       0.052700
     18 H3          -0.3610     0.8850     0.5110 h1         1 F2W       0.052700
     19 H4           0.2130    -0.0050     2.3170 ha         1 F2W       0.159000
     20 H5           0.2510     0.7040     4.7280 hc         1 F2W       0.089200
     21 H6           0.6620    -0.9970     5.0090 hc         1 F2W       0.089200
     22 H7           2.1810     1.4450     5.9830 hx         1 F2W       0.104700
     23 H8           1.3360     0.2380     6.9720 hx         1 F2W       0.104700
     24 H9           2.8690    -1.3890     5.9460 hn         1 F2W       0.455800
     25 H10          3.9940     0.7720     7.5650 hx         1 F2W       0.100033
     26 H11          4.7270    -0.8260     7.3730 hx         1 F2W       0.100033
     27 H12          3.1570    -0.6630     8.1710 hx         1 F2W       0.100033
     28 H13          4.8470    -0.6880     4.9570 hx         1 F2W       0.102700
     29 H14          4.3440     1.0150     5.2260 hx         1 F2W       0.102700
     30 H15          5.1360    -0.0030     2.5880 ha         1 F2W       0.153000
     31 H16          6.0740     0.0000    -0.6650 h1         1 F2W       0.050367
     32 H17          5.9090    -0.8840     0.8580 h1         1 F2W       0.050367
     33 H18          5.9020     0.8850     0.8570 h1         1 F2W       0.050367
@<TRIPOS>BOND
     1    15    14 1
     2     8     9 1
     3     8    10 1
     4     8     7 1
     5    10    11 1
     6    12    11 ar
     7    12    13 ar
     8    11     5 ar
     9    14    13 1
    10    13     3 ar
    11     5     6 1
    12     5     4 ar
    13     7     6 1
    14     3     4 ar
    15     3     2 1
    16     2     1 1
    17     1    16 1
    18     1    17 1
    19     1    18 1
    20     4    19 1
    21     6    20 1
    22     6    21 1
    23     7    22 1
    24     7    23 1
    25     8    24 1
    26     9    25 1
    27     9    26 1
    28     9    27 1
    29    10    28 1
    30    10    29 1
    31    12    30 1
    32    15    31 1
    33    15    32 1
    34    15    33 1
@<TRIPOS>SUBSTRUCTURE
     1 F2W         1 TEMP              0 ****  ****    0 ROOT
