@<TRIPOS>MOLECULE
F2Z
   28    29     1     0     0
SMALL
bcc


@<TRIPOS>ATOM
      1 CAB          0.0000     0.0000     0.0000 c3         1 F2Z       0.241700
      2 OAJ          1.4290     0.0000     0.0000 os         1 F2Z      -0.290900
      3 CAO          2.0460     0.0000     1.2110 ca         1 F2Z       0.129100
      4 CAE          1.2960    -0.0060     2.3740 ca         1 F2Z      -0.176000
      5 CAM          1.9210    -0.0060     3.6120 ca         1 F2Z      -0.077300
      6 CAG          1.0670    -0.0090     4.8510 c3         1 F2Z      -0.026100
      7 CAK          1.8350     0.4880     6.0370 c          1 F2Z       0.614500
      8 OAC          1.2170     0.9080     6.9930 o          1 F2Z      -0.698500
      9 NAH          3.1680     0.4870     6.0870 ns         1 F2Z      -0.179900
     10 CAF          4.0120    -0.0020     5.0110 c3         1 F2Z       0.113300
     11 CAL          3.2970    -0.0010     3.6890 ca         1 F2Z      -0.108300
     12 CAD          4.0540     0.0050     2.5260 ca         1 F2Z      -0.169000
     13 CAN          3.4360    -0.0000     1.2890 ca         1 F2Z       0.122100
     14 OAI          4.1820     0.0000     0.1520 os         1 F2Z      -0.290900
     15 CAA          5.6030     0.0010     0.3090 c3         1 F2Z       0.241700
     16 HAE         -0.3610     0.8830     0.5140 h1         1 F2Z      -0.001967
     17 HAF         -0.3610     0.0040    -1.0210 h1         1 F2Z      -0.001967
     18 HAD         -0.3610    -0.8860     0.5080 h1         1 F2Z      -0.001967
     19 HAH          0.2140    -0.0130     2.3170 ha         1 F2Z       0.128000
     20 HAL          0.2090     0.6330     4.6910 hc         1 F2Z       0.046700
     21 HAK          0.7290    -1.0200     5.0450 hc         1 F2Z       0.046700
     22 HAM          3.6110     0.8360     6.9140 hn         1 F2Z       0.183500
     23 HAJ          4.8740     0.6490     4.9320 h1         1 F2Z       0.018700
     24 HAI          4.3000    -1.0210     5.2410 h1         1 F2Z       0.018700
     25 HAG          5.1360     0.0050     2.5880 ha         1 F2Z       0.125000
     26 HAC          5.9070    -0.8850     0.8530 h1         1 F2Z      -0.002633
     27 HAA          6.0740     0.0050    -0.6670 h1         1 F2Z      -0.002633
     28 HAB          5.9050     0.8840     0.8600 h1         1 F2Z      -0.002633
@<TRIPOS>BOND
     1     1     2 1   
     2     1    16 1   
     3     1    17 1   
     4     1    18 1   
     5     2     3 1   
     6     3     4 ar  
     7     3    13 ar  
     8     4     5 ar  
     9     4    19 1   
    10     5     6 1   
    11     5    11 ar  
    12     6     7 1   
    13     6    20 1   
    14     6    21 1   
    15     7     8 2   
    16     7     9 1   
    17     9    10 1   
    18     9    22 1   
    19    10    11 1   
    20    10    23 1   
    21    10    24 1   
    22    11    12 ar  
    23    12    13 ar  
    24    12    25 1   
    25    13    14 1   
    26    14    15 1   
    27    15    26 1   
    28    15    27 1   
    29    15    28 1   
@<TRIPOS>SUBSTRUCTURE
     1 F2Z         1 TEMP              0 ****  ****    0 ROOT
