@<TRIPOS>MOLECULE
F31
   23    23     1     0     0
SMALL
bcc


@<TRIPOS>ATOM
      1 CAA          0.0000     0.0000     0.0000 c3         1 F31       0.240700
      2 CAB         -0.3600    -0.1460     4.7790 c3         1 F31      -0.092100
      3 CAE          4.0770     0.0070     2.5230 ca         1 F31      -0.099000
      4 CAF          3.3330     0.0000     3.6820 ca         1 F31      -0.070000
      5 CAG          1.2950    -0.0040     2.3680 ca         1 F31      -0.175000
      6 CAJ          3.4410     0.0090     1.2860 ca         1 F31       0.025600
      7 CAK          1.9340    -0.0050     3.6150 ca         1 F31      -0.152600
      8 CAL          2.0450    -0.0020     1.2120 ca         1 F31       0.123100
      9 OAD          1.6900     0.0830     5.9260 o          1 F31      -0.560100
     10 OAH          1.4280     0.0000     0.0000 os         1 F31      -0.297900
     11 H1          -0.3610     0.8820     0.5150 h1         1 F31      -0.002633
     12 H2          -0.3610    -0.8870     0.5060 h1         1 F31      -0.002633
     13 H3          -0.3610     0.0050    -1.0210 h1         1 F31      -0.002633
     14 H4          -0.6190    -1.0460     4.2350 hc         1 F31       0.025033
     15 H5          -0.7800     0.7150     4.2730 hc         1 F31       0.025033
     16 H6          -0.7590    -0.2040     5.7850 hc         1 F31       0.025033
     17 H7           5.1590     0.0140     2.5760 ha         1 F31       0.113000
     18 H8           3.8290    -0.0010     4.6440 ha         1 F31       0.124000
     19 H9           0.2130    -0.0100     2.3130 ha         1 F31       0.126000
     20 H10          4.4890    -0.8390    -0.2990 hn         1 F31       0.274300
     21 H11          4.4760     0.8940    -0.2870 hn         1 F31       0.274300
     22 NAC          4.1970     0.0220     0.1180 nv         1 F31      -0.546200
     23 CAI          1.1390    -0.0150     4.8490 c          1 F31       0.623700
@<TRIPOS>BOND
     1     1    10 1   
     2     1    11 1   
     3     1    12 1   
     4     1    13 1   
     5     2    14 1   
     6     2    15 1   
     7     2    16 1   
     8     2    23 1   
     9     3     4 ar  
    10     3     6 ar  
    11     3    17 1   
    12     4     7 ar  
    13     4    18 1   
    14     5     7 ar  
    15     5     8 ar  
    16     5    19 1   
    17     6     8 ar  
    18     6    22 1   
    19     7    23 1   
    20     8    10 1   
    21     9    23 2   
    22    20    22 1   
    23    21    22 1   
@<TRIPOS>SUBSTRUCTURE
     1 F31         1 TEMP              0 ****  ****    0 ROOT
