@<TRIPOS>MOLECULE
molecule
   23    23     1     0     0
SMALL
bcc


@<TRIPOS>ATOM
      1 CAA          0.0000     0.0000     0.0000 c3         1 F31       0.125700
      2 CAB         -0.3600    -0.1460     4.7790 c3         1 F31      -0.191100
      3 CAE          4.0770     0.0070     2.5230 ca         1 F31      -0.130000
      4 CAF          3.3330     0.0000     3.6820 ca         1 F31      -0.099000
      5 CAG          1.2950    -0.0040     2.3680 ca         1 F31      -0.184000
      6 CAJ          3.4410     0.0090     1.2860 ca         1 F31       0.167600
      7 CAK          1.9340    -0.0050     3.6150 ca         1 F31      -0.152600
      8 CAL          2.0450    -0.0020     1.2120 ca         1 F31       0.110100
      9 OAD          1.6900     0.0830     5.9260 o          1 F31      -0.528100
     10 OAH          1.4280     0.0000     0.0000 os         1 F31      -0.316900
     11 H1          -0.3610     0.8820     0.5150 h1         1 F31       0.040367
     12 H2          -0.3610    -0.8870     0.5060 h1         1 F31       0.040367
     13 H3          -0.3610     0.0050    -1.0210 h1         1 F31       0.040367
     14 H4          -0.6190    -1.0460     4.2350 hc         1 F31       0.060700
     15 H5          -0.7800     0.7150     4.2730 hc         1 F31       0.060700
     16 H6          -0.7590    -0.2040     5.7850 hc         1 F31       0.060700
     17 H7           5.1590     0.0140     2.5760 ha         1 F31       0.145000
     18 H8           3.8290    -0.0010     4.6440 ha         1 F31       0.154000
     19 H9           0.2130    -0.0100     2.3130 ha         1 F31       0.138000
     20 H10          4.4890    -0.8390    -0.2990 hn         1 F31       0.430800
     21 H11          4.4760     0.8940    -0.2870 hn         1 F31       0.430800
     22 NAC          4.1970     0.0220     0.1180 nv         1 F31      -0.978200
     23 CAI          1.1390    -0.0150     4.8490 c          1 F31       0.575700
@<TRIPOS>BOND
     1     2    23 1
     2     4     3 ar
     3     4     7 ar
     4     3     6 ar
     5    23     7 1
     6    23     9 2
     7     7     5 ar
     8     6    22 1
     9     6     8 ar
    10     5     8 ar
    11     8    10 1
    12    10     1 1
    13     1    11 1
    14     1    12 1
    15     1    13 1
    16     2    14 1
    17     2    15 1
    18     2    16 1
    19     3    17 1
    20     4    18 1
    21     5    19 1
    22    22    20 1
    23    22    21 1
@<TRIPOS>SUBSTRUCTURE
     1 F31         1 TEMP              0 ****  ****    0 ROOT
