@<TRIPOS>MOLECULE
F32
   56    61     1     0     0
SMALL
bcc


@<TRIPOS>ATOM
      1 C1           0.0000     0.0000     0.0000 c3         1 F32       0.076400
      2 C2           1.5510     0.0000     0.0000 c3         1 F32      -0.089400
      3 C3           2.0300     0.0000     1.4210 c          1 F32       0.631500
      4 N4           1.1800    -0.3910     2.3820 ns         1 F32      -0.277300
      5 S5          -0.2900    -0.7370     1.6600 s6         1 F32       0.920600
      6 O6          -1.2210     0.0180     2.4250 o          1 F32      -0.561800
      7 O7          -0.3060    -2.1570     1.6190 o          1 F32      -0.561800
      8 O9           3.1610     0.3410     1.6940 o          1 F32      -0.631500
      9 C11         -0.5520    -0.8750    -1.0970 ca         1 F32      -0.096300
     10 C12         -1.3620    -0.3280    -2.0750 ca         1 F32      -0.083000
     11 C13         -1.8670    -1.1300    -3.0810 ca         1 F32      -0.089500
     12 C14         -1.5630    -2.4780    -3.1090 ca         1 F32      -0.090300
     13 C15         -0.7530    -3.0240    -2.1310 ca         1 F32      -0.089500
     14 C16         -0.2440    -2.2210    -1.1280 ca         1 F32      -0.083000
     15 C21         -2.1150    -3.3530    -4.2050 c3         1 F32       0.021900
     16 C22         -1.1400    -3.3700    -5.3840 c3         1 F32       0.150200
     17 N45         -1.0520    -2.0280    -5.9650 nu         1 F32      -0.426200
     18 C17         -3.0730    -6.7740    -9.9630 ca         1 F32      -0.087000
     19 C19         -2.6710    -5.4910    -9.6570 ca         1 F32      -0.087000
     20 C23         -2.2910    -5.1810    -8.3580 ca         1 F32      -0.273200
     21 C4          -2.3210    -6.1750    -7.3660 ca         1 F32       0.063400
     22 C5          -2.7340    -7.4680    -7.6990 ca         1 F32      -0.037000
     23 C6          -3.1020    -7.7540    -8.9820 ca         1 F32      -0.119000
     24 N11         -1.8500    -4.0310    -7.7350 na         1 F32       0.280700
     25 C25         -1.6300    -4.3390    -6.4280 cc         1 F32       0.176800
     26 N13         -1.9000    -5.5930    -6.2130 nd         1 F32      -0.509100
     27 C7           4.2000    -0.5080    -9.0870 ca         1 F32      -0.104000
     28 C8           3.0170     0.1420    -8.7840 ca         1 F32      -0.033000
     29 C9           2.0510    -0.5100    -8.0600 ca         1 F32      -0.003100
     30 C18          2.2080    -1.8370    -7.6000 ca         1 F32       0.107400
     31 C20          3.4280    -2.4720    -7.9290 ca         1 F32      -0.061000
     32 C24          4.3880    -1.8120    -8.6530 ca         1 F32      -0.090000
     33 S1           0.4340    -0.0890    -7.4560 ss         1 F32      -0.292100
     34 C10          0.0780    -1.6480    -6.6580 cc         1 F32       0.509100
     35 N1           1.1700    -2.3400    -6.8960 nd         1 F32      -0.574100
     36 H1          -0.3910     1.0090    -0.0540 h1         1 F32       0.091700
     37 H2C1         1.9140    -0.8870    -0.5050 hc         1 F32       0.063200
     38 H2C2         1.9140     0.8870    -0.5050 hc         1 F32       0.063200
     39 H4           1.3890    -0.4620     3.3580 hn         1 F32       0.264500
     40 H12         -1.6000     0.7290    -2.0530 ha         1 F32       0.126000
     41 H13         -2.5020    -0.7010    -3.8470 ha         1 F32       0.111000
     42 H15         -0.5130    -4.0800    -2.1540 ha         1 F32       0.111000
     43 H16          0.3910    -2.6490    -0.3610 ha         1 F32       0.126000
     44 H211        -3.0700    -2.9610    -4.5330 hc         1 F32       0.041200
     45 H212        -2.2480    -4.3600    -3.8310 hc         1 F32       0.041200
     46 H22         -0.1600    -3.6780    -5.0370 h1         1 F32       0.077700
     47 H45         -1.8280    -1.4000    -5.8910 hn         1 F32       0.305800
     48 H19         -2.6500    -4.7290   -10.4270 ha         1 F32       0.101000
     49 H5          -2.7600    -8.2410    -6.9410 ha         1 F32       0.110000
     50 H6          -3.4210    -8.7580    -9.2370 ha         1 F32       0.105000
     51 H11         -1.8420    -3.1130    -8.1320 hn         1 F32       0.127700
     52 H7           4.9700    -0.0050    -9.6580 ha         1 F32       0.110000
     53 H8           2.8540     1.1600    -9.1160 ha         1 F32       0.111000
     54 H20          3.6070    -3.4900    -7.6050 ha         1 F32       0.115000
     55 H24          5.3140    -2.3210    -8.8910 ha         1 F32       0.105000
     56 H17         -3.3690    -7.0180   -10.9760 ha         1 F32       0.103000
@<TRIPOS>BOND
     1     1     2 1   
     2     1     5 1   
     3     1     9 1   
     4     1    36 1   
     5     2     3 1   
     6     2    37 1   
     7     2    38 1   
     8     3     4 1   
     9     3     8 2   
    10     4     5 1   
    11     4    39 1   
    12     5     6 2   
    13     5     7 2   
    14     9    10 ar  
    15     9    14 ar  
    16    10    11 ar  
    17    10    40 1   
    18    11    12 ar  
    19    11    41 1   
    20    12    13 ar  
    21    12    15 1   
    22    13    14 ar  
    23    13    42 1   
    24    14    43 1   
    25    15    16 1   
    26    15    44 1   
    27    15    45 1   
    28    16    17 1   
    29    16    25 1   
    30    16    46 1   
    31    17    34 1   
    32    17    47 1   
    33    18    19 ar  
    34    18    23 ar  
    35    18    56 1   
    36    19    20 ar  
    37    19    48 1   
    38    20    21 ar  
    39    20    24 1   
    40    21    22 ar  
    41    21    26 1   
    42    22    23 ar  
    43    22    49 1   
    44    23    50 1   
    45    24    25 1   
    46    24    51 1   
    47    25    26 2   
    48    27    28 ar  
    49    27    32 ar  
    50    27    52 1   
    51    28    29 ar  
    52    28    53 1   
    53    29    30 ar  
    54    29    33 1   
    55    30    31 ar  
    56    30    35 1   
    57    31    32 ar  
    58    31    54 1   
    59    32    55 1   
    60    33    34 1   
    61    34    35 2   
@<TRIPOS>SUBSTRUCTURE
     1 F32         1 TEMP              0 ****  ****    0 ROOT
