@<TRIPOS>MOLECULE
molecule
   36    39     1     0     0
SMALL
bcc


@<TRIPOS>ATOM
      1 O            0.0000     0.0000     0.0000 o          1 F33      -0.611500
      2 C4           1.2150     0.0000     0.0000 c          1 F33       0.833600
      3 C1           3.3620    -0.0050    -0.7790 c3         1 F33       0.123400
      4 N            1.9470     0.0000     1.1230 n          1 F33      -0.405000
      5 C5           1.4380    -0.0000     2.4230 ca         1 F33       0.117600
      6 C10          0.0680     0.1140     2.6310 ca         1 F33      -0.176000
      7 C9          -0.4370     0.1150     3.9130 ca         1 F33      -0.061500
      8 C6           2.3030    -0.1200     3.5060 ca         1 F33      -0.176000
      9 C7           1.8040    -0.1210     4.7890 ca         1 F33      -0.061500
     10 O10          1.9460    -0.0050    -1.1210 os         1 F33      -0.376900
     11 C8           0.4290    -0.0000     5.0030 ca         1 F33      -0.179900
     12 C11         -0.1090    -0.0010     6.3780 cc         1 F33       0.560500
     13 N2           0.7680    -0.1160     7.4230 ns         1 F33      -0.474400
     14 C18          0.3180    -0.1200     8.6990 c          1 F33       0.710100
     15 O1           1.0850    -0.2200     9.6380 o          1 F33      -0.626500
     16 N1          -1.4020     0.1150     6.5420 nd         1 F33      -0.650100
     17 C12         -1.9630     0.1220     7.7690 ca         1 F33       0.201400
     18 C17         -1.1320     0.0030     8.9070 ca         1 F33      -0.210600
     19 C13         -3.3450     0.2450     7.9400 ca         1 F33      -0.123000
     20 C14         -3.8760     0.2480     9.2090 ca         1 F33      -0.092000
     21 C15         -3.0570     0.1300    10.3240 ca         1 F33      -0.156000
     22 C2           3.3730    -0.0010     0.7630 c3         1 F33       0.041000
     23 C16         -1.6920     0.0090    10.1820 ca         1 F33      -0.051000
     24 H11C         3.7640     0.9490    -1.1000 h1         1 F33       0.086700
     25 H12C         3.7630    -0.9600    -1.0950 h1         1 F33       0.086700
     26 H21C         3.8590     0.8930     1.1360 h1         1 F33       0.066200
     27 H22C         3.8590    -0.8920     1.1410 h1         1 F33       0.066200
     28 H6           3.3690    -0.2140     3.3400 ha         1 F33       0.164000
     29 H10         -0.6020     0.2030     1.7850 ha         1 F33       0.164000
     30 H7           2.4780    -0.2130     5.6330 ha         1 F33       0.149500
     31 H9          -1.5040     0.2060     4.0750 ha         1 F33       0.149500
     32 H2           1.7490    -0.1970     7.2410 hn         1 F33       0.337500
     33 H13         -3.9940     0.3370     7.0780 ha         1 F33       0.149000
     34 H16         -1.0590    -0.0830    11.0560 ha         1 F33       0.154000
     35 H14         -4.9470     0.3430     9.3400 ha         1 F33       0.134000
     36 H15         -3.4950     0.1350    11.3150 ha         1 F33       0.136000
@<TRIPOS>BOND
     1     1     2 2
     2     2     4 1
     3     2    10 1
     4     3    10 1
     5     3    22 1
     6     4     5 1
     7     4    22 1
     8     5     8 ar
     9     5     6 ar
    10     8     9 ar
    11     9    11 ar
    12     6     7 ar
    13     7    11 ar
    14    11    12 1
    15    12    13 1
    16    12    16 2
    17    13    14 1
    18    14    15 2
    19    14    18 1
    20    16    17 1
    21    17    18 ar
    22    17    19 ar
    23    18    23 ar
    24    19    20 ar
    25    20    21 ar
    26    21    23 ar
    27     3    24 1
    28     3    25 1
    29    22    26 1
    30    22    27 1
    31     8    28 1
    32     6    29 1
    33     9    30 1
    34     7    31 1
    35    13    32 1
    36    19    33 1
    37    23    34 1
    38    20    35 1
    39    21    36 1
@<TRIPOS>SUBSTRUCTURE
     1 F33         1 TEMP              0 ****  ****    0 ROOT
