@<TRIPOS>MOLECULE
molecule
   30    30     1     0     0
SMALL
bcc


@<TRIPOS>ATOM
      1 O8           0.0000     0.0000     0.0000 o          1 F34      -0.609100
      2 C8           1.2120     0.0000     0.0000 c          1 F34       0.657100
      3 C9           1.9650     0.0000     1.3060 c3         1 F34      -0.170100
      4 N2           1.8870    -0.0060    -1.1670 ns         1 F34      -0.571900
      5 C3           1.1550    -0.0120    -2.4360 c3         1 F34       0.114700
      6 C4           2.0170    -0.6180    -3.5140 c3         1 F34       0.117100
      7 O4           2.9510    -1.5130    -2.9080 oh         1 F34      -0.607800
      8 C5           1.1970    -1.3890    -4.5660 c3         1 F34       0.121100
      9 O5           1.9950    -1.5680    -5.7380 oh         1 F34      -0.594800
     10 C6          -0.0940    -0.6460    -4.9480 c3         1 F34       0.140100
     11 O6          -0.5770    -1.1580    -6.1910 oh         1 F34      -0.593800
     12 C7           0.1390     0.8390    -5.0840 c3         1 F34       0.146800
     13 N1          -0.2120     1.4760    -3.8000 n7         1 F34      -0.837200
     14 C2           0.7960     1.4370    -2.8320 c3         1 F34       0.160800
     15 H91C         2.4490     0.9590     1.4430 hc         1 F34       0.060700
     16 H92C         2.7140    -0.7830     1.2910 hc         1 F34       0.060700
     17 H93C         1.2750    -0.1760     2.1210 hc         1 F34       0.060700
     18 H2           2.8870    -0.0250    -1.1660 hn         1 F34       0.320500
     19 H3           0.2460    -0.5920    -2.3330 h1         1 F34       0.098700
     20 H4           2.5600     0.1770    -4.0110 h1         1 F34       0.049700
     21 H21C         1.6810     1.9230    -3.2260 h1         1 F34       0.034700
     22 H22C         0.4580     1.9690    -1.9510 h1         1 F34       0.034700
     23 HA           3.7940    -1.4140    -3.3190 ho         1 F34       0.407000
     24 H5           0.9350    -2.3600    -4.1620 h1         1 F34       0.051700
     25 HB           2.1800    -2.4850    -5.8560 ho         1 F34       0.408000
     26 H6          -0.8380    -0.8150    -4.1790 h1         1 F34       0.061700
     27 HC          -1.4520    -1.4890    -6.0760 ho         1 F34       0.401000
     28 H71C        -0.4900     1.2360    -5.8720 h1         1 F34       0.053200
     29 H72C         1.1810     1.0250    -5.3120 h1         1 F34       0.053200
     30 H1          -0.4830     2.4250    -3.9620 hn         1 F34       0.369800
@<TRIPOS>BOND
     1     1     2 2
     2     2     3 1
     3     2     4 1
     4     4     5 1
     5     5     6 1
     6     5    14 1
     7     6     7 1
     8     6     8 1
     9     8     9 1
    10     8    10 1
    11    10    11 1
    12    10    12 1
    13    12    13 1
    14    13    14 1
    15     3    15 1
    16     3    16 1
    17     3    17 1
    18     4    18 1
    19     5    19 1
    20     6    20 1
    21    14    21 1
    22    14    22 1
    23     7    23 1
    24     8    24 1
    25     9    25 1
    26    10    26 1
    27    11    27 1
    28    12    28 1
    29    12    29 1
    30    13    30 1
@<TRIPOS>SUBSTRUCTURE
     1 F34         1 TEMP              0 ****  ****    0 ROOT
