@<TRIPOS>MOLECULE
F35
   39    42     1     0     0
SMALL
bcc


@<TRIPOS>ATOM
      1 O1           0.0000     0.0000     0.0000 o          1 F35      -0.698500
      2 C2           1.2150     0.0000     0.0000 c          1 F35       0.618500
      3 N            1.9630     0.0000     1.1190 ns         1 F35      -0.223900
      4 C1           3.3710    -0.0000     0.6850 c3         1 F35      -0.058000
      5 C            3.2770    -0.0010    -0.8280 c          1 F35       0.615500
      6 O            4.1960    -0.0030    -1.6180 o          1 F35      -0.614500
      7 N1           1.9600    -0.0070    -1.1110 n          1 F35      -0.130400
      8 C3           1.4110    -0.0150    -2.4690 c3         1 F35       0.119300
      9 C4           1.2220     1.4030    -2.9440 ca         1 F35      -0.120300
     10 C5           2.2490     2.0470    -3.6100 ca         1 F35      -0.081500
     11 C6           2.0840     3.3450    -4.0480 ca         1 F35      -0.075500
     12 C9           0.0220     2.0520    -2.7160 ca         1 F35      -0.081500
     13 C8          -0.1570     3.3500    -3.1480 ca         1 F35      -0.075500
     14 C7           0.8760     4.0080    -3.8170 ca         1 F35      -0.149900
     15 C10          0.6920     5.3990    -4.2830 cc         1 F35       0.356500
     16 N3          -0.5040     6.0150    -4.0360 ns         1 F35      -0.017400
     17 C17         -0.7150     7.2880    -4.4460 c          1 F35       0.620100
     18 O2          -1.7740     7.8510    -4.2350 o          1 F35      -0.665500
     19 N2           1.6830     5.9840    -4.9050 nd         1 F35      -0.535100
     20 C11          1.5850     7.2510    -5.3570 ca         1 F35       0.154400
     21 C12          0.3820     7.9640    -5.1530 ca         1 F35      -0.216600
     22 C16          2.6450     7.8730    -6.0220 ca         1 F35      -0.098000
     23 C15          2.5050     9.1680    -6.4680 ca         1 F35      -0.063000
     24 C14          1.3220     9.8660    -6.2660 ca         1 F35      -0.129000
     25 C13          0.2620     9.2740    -5.6120 ca         1 F35      -0.015000
     26 H            1.6270     0.0010     2.0620 hn         1 F35       0.224500
     27 H11C         3.7920    -0.9550     0.9770 h1         1 F35       0.057700
     28 H12C         3.7920     0.9540     0.9760 h1         1 F35       0.057700
     29 H31C         0.4550    -0.5260    -2.4690 h1         1 F35       0.045700
     30 H32C         2.0950    -0.5300    -3.1320 h1         1 F35       0.045700
     31 H5           3.1850     1.5320    -3.7890 ha         1 F35       0.126000
     32 H9          -0.7790     1.5400    -2.1970 ha         1 F35       0.126000
     33 H6           2.8890     3.8490    -4.5690 ha         1 F35       0.119500
     34 H8          -1.0970     3.8580    -2.9670 ha         1 F35       0.119500
     35 H3          -1.2270     5.5230    -3.5510 hn         1 F35       0.191500
     36 H16          3.5730     7.3380    -6.1860 ha         1 F35       0.119000
     37 H13         -0.6590     9.8240    -5.4580 ha         1 F35       0.124000
     38 H15          3.3280     9.6480    -6.9830 ha         1 F35       0.102000
     39 H14          1.2310    10.8840    -6.6240 ha         1 F35       0.108000
@<TRIPOS>BOND
     1     1     2 2   
     2     2     3 1   
     3     2     7 1   
     4     3     4 1   
     5     3    26 1   
     6     4     5 1   
     7     4    27 1   
     8     4    28 1   
     9     5     6 2   
    10     5     7 1   
    11     7     8 1   
    12     8     9 1   
    13     8    29 1   
    14     8    30 1   
    15     9    10 ar  
    16     9    12 ar  
    17    10    11 ar  
    18    10    31 1   
    19    11    14 ar  
    20    11    33 1   
    21    12    13 ar  
    22    12    32 1   
    23    13    14 ar  
    24    13    34 1   
    25    14    15 1   
    26    15    16 1   
    27    15    19 2   
    28    16    17 1   
    29    16    35 1   
    30    17    18 2   
    31    17    21 1   
    32    19    20 1   
    33    20    21 ar  
    34    20    22 ar  
    35    21    25 ar  
    36    22    23 ar  
    37    22    36 1   
    38    23    24 ar  
    39    23    38 1   
    40    24    25 ar  
    41    24    39 1   
    42    25    37 1   
@<TRIPOS>SUBSTRUCTURE
     1 F35         1 TEMP              0 ****  ****    0 ROOT
