@<TRIPOS>MOLECULE
F36
   32    34     1     0     0
SMALL
bcc


@<TRIPOS>ATOM
      1 O1           0.0000     0.0000     0.0000 o          1 F36      -0.662500
      2 C13          1.2170     0.0000     0.0000 c          1 F36       0.620100
      3 N1           1.9200     0.0000     1.1570 ns         1 F36      -0.017400
      4 C6           3.2880     0.0000     1.1370 cc         1 F36       0.349500
      5 C3           4.0120     0.0010     2.4260 ca         1 F36      -0.127900
      6 C2           3.2980    -0.0040     3.6270 ca         1 F36      -0.087500
      7 C1           3.9710    -0.0040     4.8280 ca         1 F36      -0.053500
      8 O            5.4710    -0.0020     7.1710 o          1 F36      -0.554100
      9 C5           6.0830     0.0010     3.6420 ca         1 F36      -0.053500
     10 C4           5.4090     0.0000     2.4420 ca         1 F36      -0.087500
     11 N            3.9860    -0.0010     0.0310 nd         1 F36      -0.531100
     12 C7           3.3930    -0.0020    -1.1800 ca         1 F36       0.151400
     13 C20          5.3700     0.0010     4.8450 ca         1 F36      -0.171600
     14 C8           1.9820    -0.0070    -1.2570 ca         1 F36      -0.213600
     15 C12          4.1430    -0.0030    -2.3590 ca         1 F36      -0.096000
     16 C11          3.4990    -0.0040    -3.5770 ca         1 F36      -0.063000
     17 C10          2.1120    -0.0030    -3.6480 ca         1 F36      -0.126000
     18 C9           1.3510    -0.0140    -2.4990 ca         1 F36      -0.016000
     19 CAA          6.0910     0.0020     6.1290 c          1 F36       0.621700
     20 C            7.5970     0.0070     6.1470 c3         1 F36      -0.091100
     21 H1           1.4360    -0.0000     2.0330 hn         1 F36       0.191500
     22 H4           5.9610     0.0000     1.5100 ha         1 F36       0.120500
     23 H2           2.2150    -0.0080     3.6140 ha         1 F36       0.120500
     24 H5           7.1660     0.0030     3.6540 ha         1 F36       0.120500
     25 HA           3.4170    -0.0060     5.7590 ha         1 F36       0.120500
     26 H12          5.2250    -0.0050    -2.3160 ha         1 F36       0.118000
     27 H9           0.2700    -0.0120    -2.5610 ha         1 F36       0.125000
     28 H11          4.0810     0.0040    -4.4900 ha         1 F36       0.103000
     29 H10          1.6240    -0.0030    -4.6150 ha         1 F36       0.108000
     30 HC1          7.9670    -0.8760     5.6410 hc         1 F36       0.027367
     31 HC2          7.9610     0.8930     5.6400 hc         1 F36       0.027367
     32 HC3          7.9460     0.0090     7.1720 hc         1 F36       0.027367
@<TRIPOS>BOND
     1     1     2 2   
     2     2     3 1   
     3     2    14 1   
     4     3     4 1   
     5     3    21 1   
     6     4     5 1   
     7     4    11 2   
     8     5     6 ar  
     9     5    10 ar  
    10     6     7 ar  
    11     6    23 1   
    12     7    13 ar  
    13     7    25 1   
    14     8    19 2   
    15     9    10 ar  
    16     9    13 ar  
    17     9    24 1   
    18    10    22 1   
    19    11    12 1   
    20    12    14 ar  
    21    12    15 ar  
    22    13    19 1   
    23    14    18 ar  
    24    15    16 ar  
    25    15    26 1   
    26    16    17 ar  
    27    16    28 1   
    28    17    18 ar  
    29    17    29 1   
    30    18    27 1   
    31    19    20 1   
    32    20    30 1   
    33    20    31 1   
    34    20    32 1   
@<TRIPOS>SUBSTRUCTURE
     1 F36         1 TEMP              0 ****  ****    0 ROOT
