@<TRIPOS>MOLECULE
molecule
   39    42     1     0     0
SMALL
bcc


@<TRIPOS>ATOM
      1 O            0.0000     0.0000     0.0000 o          1 F37      -0.640500
      2 C2           1.2150     0.0000     0.0000 c          1 F37       0.813500
      3 N1           1.9590     0.0000     1.1120 ns         1 F37      -0.580500
      4 C3           3.2770     0.0000     0.8290 c          1 F37       0.713500
      5 O1           4.1960    -0.0010     1.6190 o          1 F37      -0.579500
      6 N            1.9640    -0.0050    -1.1190 ns         1 F37      -0.591900
      7 C1           3.3710     0.0010    -0.6840 c3         1 F37       0.060700
      8 C            4.0870    -1.2570    -1.1790 c3         1 F37      -0.085100
      9 C4           4.0760     1.2410    -1.1700 ca         1 F37      -0.080300
     10 C5           3.7580     1.7740    -2.4070 ca         1 F37      -0.120500
     11 C6           4.4000     2.9090    -2.8580 ca         1 F37      -0.088000
     12 C9           5.0340     1.8450    -0.3750 ca         1 F37      -0.120500
     13 C8           5.6830     2.9810    -0.8140 ca         1 F37      -0.088000
     14 C7           5.3720     3.5200    -2.0630 ca         1 F37      -0.138900
     15 C10          6.0640     4.7360    -2.5400 cc         1 F37       0.552500
     16 N3           7.0090     5.3070    -1.7340 ns         1 F37      -0.471400
     17 C17          7.6670     6.4210    -2.1310 c          1 F37       0.709100
     18 O2           8.5120     6.9420    -1.4260 o          1 F37      -0.621500
     19 N2           5.7460     5.2130    -3.7160 nd         1 F37      -0.647100
     20 C11          6.3350     6.3180    -4.2140 ca         1 F37       0.197400
     21 C12          7.3220     6.9780    -3.4480 ca         1 F37      -0.206600
     22 C16          5.9940     6.8250    -5.4720 ca         1 F37      -0.122000
     23 C15          6.6190     7.9570    -5.9440 ca         1 F37      -0.092000
     24 C14          7.5880     8.6020    -5.1870 ca         1 F37      -0.153000
     25 C13          7.9430     8.1210    -3.9450 ca         1 F37      -0.051000
     26 H1           1.5830    -0.0000     2.0390 hn         1 F37       0.366500
     27 H            1.6290    -0.0050    -2.0620 hn         1 F37       0.370500
     28 HC1          5.1260    -1.2260    -0.8720 hc         1 F37       0.057367
     29 HC2          4.0320    -1.3020    -2.2600 hc         1 F37       0.057367
     30 HC3          3.6120    -2.1330    -0.7560 hc         1 F37       0.057367
     31 H5           3.0040     1.2980    -3.0230 ha         1 F37       0.152000
     32 H9           5.2750     1.4250     0.5940 ha         1 F37       0.152000
     33 H6           4.1530     3.3230    -3.8270 ha         1 F37       0.149500
     34 H8           6.4350     3.4510    -0.1910 ha         1 F37       0.149500
     35 H3           7.2160     4.8980    -0.8440 hn         1 F37       0.340500
     36 H16          5.2390     6.3300    -6.0710 ha         1 F37       0.148000
     37 H13          8.7000     8.6300    -3.3600 ha         1 F37       0.155000
     38 H15          6.3520     8.3480    -6.9180 ha         1 F37       0.135000
     39 H14          8.0690     9.4910    -5.5770 ha         1 F37       0.137000
@<TRIPOS>BOND
     1     1     2 2
     2     2     3 1
     3     2     6 1
     4     3     4 1
     5     4     5 2
     6     4     7 1
     7     6     7 1
     8     7     8 1
     9     7     9 1
    10     9    10 ar
    11     9    12 ar
    12    10    11 ar
    13    11    14 ar
    14    12    13 ar
    15    13    14 ar
    16    14    15 1
    17    15    16 1
    18    15    19 2
    19    16    17 1
    20    17    18 2
    21    17    21 1
    22    19    20 1
    23    20    21 ar
    24    20    22 ar
    25    21    25 ar
    26    22    23 ar
    27    23    24 ar
    28    24    25 ar
    29     3    26 1
    30     6    27 1
    31     8    28 1
    32     8    29 1
    33     8    30 1
    34    10    31 1
    35    12    32 1
    36    11    33 1
    37    13    34 1
    38    16    35 1
    39    22    36 1
    40    25    37 1
    41    23    38 1
    42    24    39 1
@<TRIPOS>SUBSTRUCTURE
     1 F37         1 TEMP              0 ****  ****    0 ROOT
