@<TRIPOS>MOLECULE
molecule
   36    38     1     0     0
SMALL
bcc


@<TRIPOS>ATOM
      1 OAD          0.0000     0.0000     0.0000 o          1 F38      -0.513800
      2 OAB          2.1540     0.0000     1.2170 o          1 F38      -0.513800
      3 CAF          2.6440     3.2610     0.2730 ca         1 F38      -0.092000
      4 CAG          2.3630     4.5110     0.7850 ca         1 F38      -0.090500
      5 CAJ          0.5550     3.2610    -0.9080 ca         1 F38      -0.092000
      6 CAI          0.2610     4.5110    -0.4030 ca         1 F38      -0.090500
      7 CAH          1.1660     5.1460     0.4490 ca         1 F38      -0.072900
      8 CAK          0.8580     6.4860     0.9950 cc         1 F38       0.514500
      9 CAT          1.5120     8.2670     2.3280 ca         1 F38       0.174400
     10 CAS          2.4430     8.8650     3.1820 ca         1 F38      -0.107000
     11 CAR          2.1880    10.1030     3.7030 ca         1 F38      -0.091000
     12 CAQ          1.0160    10.7800     3.3970 ca         1 F38      -0.130000
     13 CAP          0.0790    10.2160     2.5590 ca         1 F38      -0.054000
     14 CAO          0.3170     8.9550     2.0160 ca         1 F38      -0.188600
     15 CAM         -0.6460     8.3010     1.1170 c          1 F38       0.708100
     16 N10          1.8290    -1.4330    -0.7220 nz         1 F38      -0.804500
     17 N1          -0.3250     7.0760     0.6420 ns         1 F38      -0.473400
     18 OAN         -1.6930     8.8430     0.8130 o          1 F38      -0.603500
     19 N            1.7270     7.0480     1.7940 nd         1 F38      -0.617100
     20 C            2.0570     1.2720    -1.1260 c3         1 F38      -0.088300
     21 S            1.4210     0.0000     0.0000 s6         1 F38       1.080900
     22 C1           1.7440     2.6370    -0.5710 ca         1 F38      -0.129300
     23 HAF          3.5730     2.7670     0.5330 ha         1 F38       0.145500
     24 HAG          3.0690     4.9990     1.4460 ha         1 F38       0.170000
     25 HAJ         -0.1460     2.7670    -1.5690 ha         1 F38       0.145500
     26 HAI         -0.6690     4.9980    -0.6680 ha         1 F38       0.170000
     27 H1          -0.9560     6.5990     0.0290 hn         1 F38       0.336500
     28 HAS          3.3620     8.3500     3.4310 ha         1 F38       0.150000
     29 HAR          2.9130    10.5630     4.3640 ha         1 F38       0.144000
     30 HAQ          0.8350    11.7600     3.8220 ha         1 F38       0.147000
     31 HAP         -0.8350    10.7480     2.3230 ha         1 F38       0.163000
     32 H101         2.8240    -1.4860    -0.8210 hn         1 F38       0.490133
     33 H102         1.4010    -1.4860    -1.6250 hn         1 F38       0.490133
     34 HC1          3.1300     1.1610    -1.2260 h1         1 F38       0.117200
     35 HC2          1.5900     1.1610    -2.0970 h1         1 F38       0.117200
     36 H103         1.5320    -2.1940    -0.1440 hn         1 F38       0.490133
@<TRIPOS>BOND
     1     2    21 2
     2     1    21 2
     3     3     4 ar
     4     3    22 ar
     5     4     7 ar
     6     5     6 ar
     7     5    22 ar
     8     6     7 ar
     9     7     8 1
    10     8    17 1
    11     8    19 2
    12     9    10 ar
    13     9    14 ar
    14     9    19 1
    15    10    11 ar
    16    11    12 ar
    17    12    13 ar
    18    13    14 ar
    19    14    15 1
    20    15    17 1
    21    15    18 2
    22    16    21 1
    23    21    20 1
    24    20    22 1
    25     3    23 1
    26     4    24 1
    27     5    25 1
    28     6    26 1
    29    17    27 1
    30    10    28 1
    31    11    29 1
    32    12    30 1
    33    13    31 1
    34    16    32 1
    35    16    33 1
    36    20    34 1
    37    20    35 1
    38    36    16 1
@<TRIPOS>SUBSTRUCTURE
     1 F38         1 TEMP              0 ****  ****    0 ROOT
