@<TRIPOS>MOLECULE
F3A
   44    46     1     0     0
SMALL
bcc


@<TRIPOS>ATOM
      1 N1          0.0000    0.0000    0.0000 nb        1 F3A     -0.666000
      2 C2          1.3210    0.0000    0.0000 ca        1 F3A      0.506900
      3 N3          2.0280    0.0000    1.1100 nb        1 F3A     -0.764000
      4 C4          1.4280   -0.0010    2.2960 ca        1 F3A      0.259800
      5 C5          0.0230   -0.0000    2.3500 ca        1 F3A     -0.174200
      6 C6         -0.6870   -0.0000    1.1370 ca        1 F3A      0.336200
      7 N6         -2.0710   -0.0000    1.1280 nv        1 F3A     -0.610500
      8 N7         -0.3250   -0.0010    3.6590 nc        1 F3A     -0.548100
      9 C8          0.7480   -0.0020    4.3940 cd        1 F3A      0.163700
     10 N9          1.8560   -0.0020    3.5990 na        1 F3A      0.205000
     11 PA          4.6420   -1.9100    9.4160 p5        1 F3A      0.616600
     12 PB          4.8540   -4.2090   11.2960 p5        1 F3A      0.689600
     13 PG          5.1160   -6.8390   12.6360 p5        1 F3A      0.836900
     14 C1'         3.2490   -0.0030    4.0530 c3        1 F3A      0.156800
     15 F1A         3.7810   -4.3510    8.8860 f         1 F3A     -0.262300
     16 O1A         3.2520   -1.4760   10.1040 o         1 F3A     -0.630000
     17 O1B         3.5760   -3.8100   11.9280 o         1 F3A     -0.625500
     18 O1G         5.8060   -8.2080   12.1410 o         1 F3A     -0.614500
     19 C2'         3.7760    1.4440    4.1770 c3        1 F3A     -0.113400
     20 F2A         6.0510   -4.0960    8.9430 f         1 F3A     -0.262300
     21 O2A         5.7660   -1.2410   10.1100 o         1 F3A     -0.630000
     22 O2B         6.0760   -3.4800   12.0490 o         1 F3A     -0.625500
     23 O2G         5.9240   -6.2460   13.7250 o         1 F3A     -0.614500
     24 C3'         4.6830    1.4080    5.4260 c3        1 F3A      0.146100
     25 O3'         6.0280    1.7430    5.0790 oh        1 F3A     -0.583800
     26 C3A         4.8430   -3.7170    9.5410 c3        1 F3A      0.391200
     27 O3B         5.0310   -5.8060   11.4060 os        1 F3A     -0.482800
     28 O3G         3.6330   -7.1520   13.1780 o         1 F3A     -0.614500
     29 C4'         4.5970   -0.0570    5.9110 c3        1 F3A      0.149100
     30 O4'         3.3420   -0.5440    5.3890 os        1 F3A     -0.356600
     31 C5'         4.5950   -0.1130    7.4390 c3        1 F3A      0.303400
     32 O5'         4.6330   -1.4760    7.8660 os        1 F3A     -0.491200
     33 H2          1.8420    0.0000   -0.9500 h5        1 F3A     -0.046900
     34 HN6        -2.5710   -0.8670    1.1090 hn        1 F3A      0.226800
     35 HN6A       -2.5720    0.8660    1.1100 hn        1 F3A      0.226800
     36 H8          0.7610   -0.0040    5.4770 h5        1 F3A      0.045800
     37 H1'         3.8720   -0.5720    3.3740 h2        1 F3A      0.034700
     38 H2'         4.3520    1.7130    3.2990 hc        1 F3A      0.024200
     39 H2'A        2.9540    2.1340    4.3250 hc        1 F3A      0.024200
     40 H3'         4.3030    2.0800    6.1870 h1        1 F3A      0.011700
     41 HO3'        6.2080    2.6320    5.3370 ho        1 F3A      0.366000
     42 H4'         5.4200   -0.6340    5.5080 h1        1 F3A      0.030700
     43 H5'         5.4650    0.4090    7.8210 h1        1 F3A     -0.019300
     44 H5'A        3.6960    0.3590    7.8170 h1        1 F3A     -0.019300
@<TRIPOS>BOND
     1    1    2 ar  
     2    1    6 ar  
     3    2    3 ar  
     4    2   33 1   
     5    3    4 ar  
     6    4    5 ar  
     7    4   10 1   
     8    5    6 ar  
     9    5    8 1   
    10    6    7 1   
    11    7   34 1   
    12    7   35 1   
    13    8    9 2   
    14    9   10 1   
    15    9   36 1   
    16   10   14 1   
    17   11   16 1   
    18   11   21 1   
    19   11   26 1   
    20   11   32 1   
    21   12   17 1   
    22   12   22 1   
    23   12   26 1   
    24   12   27 1   
    25   13   18 1   
    26   13   23 1   
    27   13   27 1   
    28   13   28 1   
    29   14   19 1   
    30   14   30 1   
    31   14   37 1   
    32   15   26 1   
    33   19   24 1   
    34   19   38 1   
    35   19   39 1   
    36   20   26 1   
    37   24   25 1   
    38   24   29 1   
    39   24   40 1   
    40   25   41 1   
    41   29   30 1   
    42   29   31 1   
    43   29   42 1   
    44   31   32 1   
    45   31   43 1   
    46   31   44 1   
@<TRIPOS>SUBSTRUCTURE
     1 F3A         1 TEMP              0 ****  ****    0 ROOT
