@<TRIPOS>MOLECULE
molecule
   12    12     1     0     0
SMALL
bcc


@<TRIPOS>ATOM
      1 Cl6         -3.1210     0.0430    -0.0020 cl         1 F3B      -0.035400
      2 C6          -1.3850     0.0190    -0.0030 ca         1 F3B      -0.068600
      3 C1          -0.6760     1.2090    -0.0000 ca         1 F3B       0.199900
      4 F1          -1.3360     2.3880     0.0020 f          1 F3B      -0.096900
      5 C5          -0.7090    -1.1900     0.0000 ca         1 F3B       0.199900
      6 F5          -1.4000    -2.3510     0.0040 f          1 F3B      -0.096900
      7 C4           0.6760    -1.2090    -0.0010 ca         1 F3B      -0.068600
      8 Cl4          1.5240    -2.7240     0.0020 cl         1 F3B      -0.035400
      9 C3           1.3850    -0.0190    -0.0050 ca         1 F3B       0.199900
     10 F3           2.7360    -0.0370    -0.0060 f          1 F3B      -0.096900
     11 C2           0.7090     1.1900    -0.0010 ca         1 F3B      -0.068600
     12 Cl2          1.5970     2.6810     0.0030 cl         1 F3B      -0.035400
@<TRIPOS>BOND
     1     1     2 1
     2     2     3 ar
     3     2     5 ar
     4     3     4 1
     5     3    11 ar
     6     5     6 1
     7     5     7 ar
     8     7     8 1
     9     7     9 ar
    10     9    10 1
    11     9    11 ar
    12    11    12 1
@<TRIPOS>SUBSTRUCTURE
     1 F3B         1 TEMP              0 ****  ****    0 ROOT
