@<TRIPOS>MOLECULE
F3B
   12    12     1     0     0
SMALL
bcc


@<TRIPOS>ATOM
      1 CL6        -3.1080    0.0430    0.0010 cl        1 F3B     -0.019400
      2 C6         -1.4150    0.0190   -0.0000 ca        1 F3B     -0.072600
      3 C1         -0.6880    1.2300   -0.0000 ca        1 F3B      0.188900
      4 F1         -1.3470    2.4090    0.0000 f         1 F3B     -0.096900
      5 C5         -0.7210   -1.2100   -0.0000 ca        1 F3B      0.188900
      6 F5         -1.4120   -2.3710   -0.0000 f         1 F3B     -0.096900
      7 C4          0.6910   -1.2350   -0.0010 ca        1 F3B     -0.072600
      8 CL4         1.5170   -2.7130   -0.0010 cl        1 F3B     -0.019400
      9 C3          1.4090   -0.0190   -0.0010 ca        1 F3B      0.188900
     10 F3          2.7590   -0.0380   -0.0020 f         1 F3B     -0.096900
     11 C2          0.7240    1.2160   -0.0010 ca        1 F3B     -0.072600
     12 CL2         1.5910    2.6710   -0.0010 cl        1 F3B     -0.019400
@<TRIPOS>BOND
     1    1    2 1   
     2    2    3 ar  
     3    2    5 ar  
     4    3    4 1   
     5    3   11 ar  
     6    5    6 1   
     7    5    7 ar  
     8    7    8 1   
     9    7    9 ar  
    10    9   10 1   
    11    9   11 ar  
    12   11   12 1   
@<TRIPOS>SUBSTRUCTURE
     1 F3B         1 TEMP              0 ****  ****    0 ROOT
