@<TRIPOS>MOLECULE
molecule
   43    44     1     0     0
SMALL
bcc


@<TRIPOS>ATOM
      1 C4           0.0000     0.0000     0.0000 cc         1 F3C       0.169500
      2 N4          -0.6910    -0.0010    -1.1890 nz         1 F3C      -0.623600
      3 C5           1.4100     0.0000     0.0000 cc         1 F3C      -0.291600
      4 C6           2.0650     0.0000     1.1850 cd         1 F3C      -0.085400
      5 N3          -0.6560     0.0040     1.1530 nd         1 F3C      -0.854100
      6 C2           0.0030     0.0050     2.3110 c          1 F3C       0.855900
      7 O2          -0.6230     0.0100     3.3580 o          1 F3C      -0.704500
      8 N1           1.3480    -0.0000     2.3430 n          1 F3C      -0.387000
      9 C1'          2.0460    -0.0010     3.6320 c3         1 F3C       0.319500
     10 C2'          1.7050     1.2780     4.4280 c3         1 F3C      -0.146400
     11 C3'          1.6220     0.7990     5.8940 c3         1 F3C       0.106100
     12 O3'          2.6040     1.4600     6.6950 oh         1 F3C      -0.617800
     13 O4'          1.5730    -1.0860     4.4600 os         1 F3C      -0.353600
     14 C4'          1.9220    -0.7150     5.8110 c3         1 F3C       0.132100
     15 C5'          1.0600    -1.4850     6.8140 c3         1 F3C       0.240400
     16 O5'          1.4350    -2.8640     6.8030 os         1 F3C      -0.603200
     17 PA           0.7330    -3.9700     7.7400 p5         1 F3C       1.433800
     18 O1A         -0.8110    -4.1310     7.3150 o          1 F3C      -0.833000
     19 O2A          0.8140    -3.5420     9.1540 o          1 F3C      -0.833000
     20 O3A          1.4880    -5.3800     7.5620 os         1 F3C      -0.710800
     21 PB           1.4970    -6.7580     8.3960 p5         1 F3C       1.186600
     22 O1B          2.0100    -6.4730     9.8960 o          1 F3C      -0.644000
     23 O2B          0.1270    -7.3150     8.4410 o          1 F3C      -0.644000
     24 C3B          2.6130    -7.9510     7.5880 c3         1 F3C       0.063200
     25 F4B          2.1670    -8.1970     6.2850 f          1 F3C      -0.199300
     26 PG           2.6230    -9.5100     8.5330 p5         1 F3C       0.908700
     27 O1G          3.6080   -10.5640     7.8180 o          1 F3C      -0.636167
     28 O2G          3.1350    -9.2260    10.0320 o          1 F3C      -0.636167
     29 O3G          1.2520   -10.0680     8.5780 o          1 F3C      -0.636167
     30 H1          -0.4550     0.8190    -1.7120 hn         1 F3C       0.360133
     31 H2          -1.6750    -0.0050    -1.0030 hn         1 F3C       0.360133
     32 H3           1.9600     0.0000    -0.9330 ha         1 F3C       0.066000
     33 H4           3.1480    -0.0020     1.2120 h4         1 F3C       0.111000
     34 H5           3.1170    -0.0780     3.4880 h2         1 F3C       0.028700
     35 H6           0.7510     1.6800     4.1070 hc         1 F3C       0.054200
     36 H7           2.4910     2.0150     4.3150 hc         1 F3C       0.054200
     37 H8           0.6270     0.9650     6.2890 h1         1 F3C       0.056700
     38 H9           2.1880     2.1300     7.2120 ho         1 F3C       0.382000
     39 H10          2.9740    -0.8990     5.9900 h1         1 F3C       0.051700
     40 H11          0.0160    -1.3920     6.5400 h1         1 F3C       0.038200
     41 H12          1.2100    -1.0770     7.8060 h1         1 F3C       0.038200
     42 H15          3.6160    -7.5420     7.5550 h1         1 F3C       0.064700
     43 H43         -0.4480    -0.8160    -1.7160 hn         1 F3C       0.360133
@<TRIPOS>BOND
     1     7     6 2
     2     6     5 1
     3     6     8 1
     4     5     1 2
     5    10     9 1
     6    10    11 1
     7     9     8 1
     8     9    13 1
     9     8     4 1
    10    12    11 1
    11     1     2 1
    12     1     3 1
    13    11    14 1
    14    13    14 1
    15     4     3 2
    16    14    15 1
    17    23    21 1
    18    15    16 1
    19    21    20 1
    20    21    22 1
    21    21    24 1
    22    16    17 1
    23    20    17 1
    24    25    24 1
    25    24    26 1
    26    17    19 1
    27    17    18 1
    28    26    29 1
    29    26    27 1
    30    26    28 1
    31     2    30 1
    32     2    31 1
    33     3    32 1
    34     4    33 1
    35     9    34 1
    36    10    35 1
    37    10    36 1
    38    11    37 1
    39    12    38 1
    40    14    39 1
    41    15    40 1
    42    15    41 1
    43    24    42 1
    44    43     2 1
@<TRIPOS>SUBSTRUCTURE
     1 F3C         1 TEMP              0 ****  ****    0 ROOT
