@<TRIPOS>MOLECULE
molecule
   73    76     1     0     0
SMALL
bcc


@<TRIPOS>ATOM
      1 C1           0.0000     0.0000     0.0000 c3         1 F3D      -0.043200
      2 N1          15.3140     1.6110    -3.2710 n          1 F3D      -0.500800
      3 C2           1.5070     0.0000     0.0000 ce         1 F3D      -0.050400
      4 N2          -0.5350    -0.2080     6.0680 na         1 F3D      -0.056100
      5 C3           2.1850     0.0000     1.1740 cf         1 F3D      -0.012400
      6 C4           3.6590     0.1200     1.1780 ca         1 F3D      -0.084800
      7 C5           4.4450    -0.8860     0.6130 ca         1 F3D      -0.076500
      8 O1          13.1520     1.7160    -3.7620 o          1 F3D      -0.604100
      9 C6           5.8180    -0.7710     0.6180 ca         1 F3D      -0.191000
     10 C7           6.4200     0.3450     1.1840 ca         1 F3D       0.144100
     11 C8           8.3280     1.6290     1.7840 c3         1 F3D       0.141400
     12 C9           9.8550     1.5760     1.6930 c3         1 F3D       0.157800
     13 C10         11.7260     1.5810     0.1570 c3         1 F3D       0.153800
     14 C11         12.1120     1.6370    -1.3230 c3         1 F3D      -0.068400
     15 C12         13.6350     1.5860    -1.4550 c3         1 F3D      -0.156400
     16 C13         14.0160     1.6420    -2.9130 c          1 F3D       0.660100
     17 C14         16.3560     1.5220    -2.2460 c3         1 F3D       0.101300
     18 C15         15.6830     1.6660    -4.6880 c3         1 F3D       0.101300
     19 N           10.2630     1.6290     0.2830 n7         1 F3D      -0.804200
     20 O            7.7750     0.4560     1.1860 os         1 F3D      -0.309900
     21 C16          5.6420     1.3480     1.7470 ca         1 F3D      -0.191000
     22 C17          4.2690     1.2430     1.7410 ca         1 F3D      -0.076500
     23 C           -0.5100     1.4370    -0.1190 c3         1 F3D      -0.083100
     24 C25          2.2430     0.0010    -1.2730 ca         1 F3D      -0.050800
     25 C30          2.1520    -1.0950    -2.1380 ca         1 F3D      -0.114500
     26 C29          2.8460    -1.0860    -3.3290 ca         1 F3D      -0.128000
     27 C28          3.6290     0.0020    -3.6710 ca         1 F3D      -0.127000
     28 C27          3.7250     1.0900    -2.8200 ca         1 F3D      -0.128000
     29 C26          3.0320     1.1000    -1.6280 ca         1 F3D      -0.114500
     30 C18          1.4490    -0.1200     2.4530 ca         1 F3D      -0.082800
     31 C24          1.4010     0.9560     3.3290 ca         1 F3D      -0.046000
     32 C23          0.7040     0.8310     4.5330 ca         1 F3D      -0.254900
     33 C22          0.4530     1.7310     5.6560 cc         1 F3D       0.377800
     34 N3          -0.2690     1.0870     6.5270 nd         1 F3D      -0.500100
     35 C21          0.0590    -0.3820     4.8450 ca         1 F3D      -0.018200
     36 C20          0.1200    -1.4490     3.9500 ca         1 F3D      -0.160000
     37 C19          0.8020    -1.3210     2.7770 ca         1 F3D      -0.071000
     38 H1          -0.3610    -0.5820    -0.8390 hc         1 F3D       0.051200
     39 H2          -0.3610    -0.4360     0.9240 hc         1 F3D       0.051200
     40 H3          -1.0710    -0.8980     6.5570 hn         1 F3D       0.331700
     41 H4           3.9760    -1.7570     0.1720 ha         1 F3D       0.134000
     42 H5           6.4280    -1.5510     0.1800 ha         1 F3D       0.139000
     43 H6           8.0300     1.6790     2.8250 h1         1 F3D       0.035200
     44 H7           7.9660     2.5060     1.2630 h1         1 F3D       0.035200
     45 H8          10.2780     2.4200     2.2240 h1         1 F3D       0.043700
     46 H9          10.2120     0.6550     2.1380 h1         1 F3D       0.043700
     47 H10         12.1610     2.4260     0.6760 h1         1 F3D       0.028200
     48 H11         12.0950     0.6600     0.5910 h1         1 F3D       0.028200
     49 H12         11.7430     2.5580    -1.7570 hc         1 F3D       0.066700
     50 H13         11.6760     0.7930    -1.8420 hc         1 F3D       0.066700
     51 H14         14.0050     0.6650    -1.0210 hc         1 F3D       0.058200
     52 H15         14.0720     2.4310    -0.9360 hc         1 F3D       0.058200
     53 H16         16.2890     2.3790    -1.5870 h1         1 F3D       0.040033
     54 H17         16.2220     0.6140    -1.6720 h1         1 F3D       0.040033
     55 H18         17.3300     1.5080    -2.7210 h1         1 F3D       0.040033
     56 H19         15.3110     2.5860    -5.1230 h1         1 F3D       0.040033
     57 H20         15.2500     0.8200    -5.2070 h1         1 F3D       0.040033
     58 H21         16.7620     1.6330    -4.7810 h1         1 F3D       0.040033
     59 H22          9.9200     2.4730    -0.1320 hn         1 F3D       0.353800
     60 H24          6.1160     2.2180     2.1850 ha         1 F3D       0.139000
     61 H25          3.6630     2.0270     2.1800 ha         1 F3D       0.134000
     62 H26          0.2310     2.1180     0.2820 hc         1 F3D       0.036700
     63 H27         -1.4330     1.5400     0.4380 hc         1 F3D       0.036700
     64 H28         -0.6890     1.6720    -1.1610 hc         1 F3D       0.036700
     65 H29          1.5400    -1.9470    -1.8720 ha         1 F3D       0.133000
     66 H30          2.7770    -1.9340    -4.0000 ha         1 F3D       0.129500
     67 H31          4.1740     0.0010    -4.6080 ha         1 F3D       0.129000
     68 H32          4.3390     1.9390    -3.0960 ha         1 F3D       0.129500
     69 H33          3.1080     1.9520    -0.9630 ha         1 F3D       0.133000
     70 H34          2.0130     1.8310     3.1450 ha         1 F3D       0.136000
     71 H35          0.8070     2.7510     5.7490 h4         1 F3D       0.061800
     72 H36         -0.3760    -2.3830     4.1880 ha         1 F3D       0.131000
     73 H37          0.8500    -2.1580     2.0920 ha         1 F3D       0.138000
@<TRIPOS>BOND
     1    23     1 1
     2     1     3 1
     3    29    28 ar
     4    29    24 ar
     5    28    27 ar
     6     3    24 1
     7     3     5 2
     8    24    25 ar
     9    27    26 ar
    10    33    34 2
    11    33    32 1
    12    34     4 1
    13    31    32 ar
    14    31    30 ar
    15    32    35 ar
    16    30     5 1
    17    30    37 ar
    18     5     6 1
    19    35     4 1
    20    35    36 ar
    21    25    26 ar
    22    37    36 ar
    23     7     6 ar
    24     7     9 ar
    25     6    22 ar
    26     9    10 ar
    27    22    21 ar
    28    10    21 ar
    29    10    20 1
    30    20    11 1
    31    11    12 1
    32    12    19 1
    33    19    13 1
    34    13    14 1
    35    14    15 1
    36    15    16 1
    37     8    16 2
    38    16     2 1
    39     2    18 1
    40     2    17 1
    41     1    38 1
    42     1    39 1
    43     4    40 1
    44     7    41 1
    45     9    42 1
    46    11    43 1
    47    11    44 1
    48    12    45 1
    49    12    46 1
    50    13    47 1
    51    13    48 1
    52    14    49 1
    53    14    50 1
    54    15    51 1
    55    15    52 1
    56    17    53 1
    57    17    54 1
    58    17    55 1
    59    18    56 1
    60    18    57 1
    61    18    58 1
    62    19    59 1
    63    21    60 1
    64    22    61 1
    65    23    62 1
    66    23    63 1
    67    23    64 1
    68    25    65 1
    69    26    66 1
    70    27    67 1
    71    28    68 1
    72    29    69 1
    73    31    70 1
    74    33    71 1
    75    36    72 1
    76    37    73 1
@<TRIPOS>SUBSTRUCTURE
     1 F3D         1 TEMP              0 ****  ****    0 ROOT
