@<TRIPOS>MOLECULE
F3D
   73    76     1     0     0
SMALL
bcc


@<TRIPOS>ATOM
      1 C1           0.0000     0.0000     0.0000 c3         1 F3D       0.011800
      2 N1          15.3140     1.6110    -3.2710 n          1 F3D      -0.169800
      3 C2           1.5070     0.0000     0.0000 ce         1 F3D      -0.059400
      4 N2          -0.5350    -0.2080     6.0680 na         1 F3D       0.409900
      5 C3           2.1850     0.0000     1.1740 cf         1 F3D       0.000600
      6 C4           3.6590     0.1200     1.1780 ca         1 F3D      -0.082800
      7 C5           4.4450    -0.8860     0.6130 ca         1 F3D      -0.051000
      8 O1          13.1520     1.7160    -3.7620 o          1 F3D      -0.642100
      9 C6           5.8180    -0.7710     0.6180 ca         1 F3D      -0.177000
     10 C7           6.4200     0.3450     1.1840 ca         1 F3D       0.151100
     11 C8           8.3280     1.6290     1.7840 c3         1 F3D       0.203400
     12 C9           9.8550     1.5760     1.6930 c3         1 F3D       0.137800
     13 C10         11.7260     1.5810     0.1570 c3         1 F3D       0.139800
     14 C11         12.1120     1.6370    -1.3230 c3         1 F3D      -0.016400
     15 C12         13.6350     1.5860    -1.4550 c3         1 F3D      -0.099400
     16 C13         14.0160     1.6420    -2.9130 c          1 F3D       0.584100
     17 C14         16.3560     1.5220    -2.2460 c3         1 F3D       0.091300
     18 C15         15.6830     1.6660    -4.6880 c3         1 F3D       0.091300
     19 N           10.2630     1.6290     0.2830 n7         1 F3D      -0.570200
     20 O            7.7750     0.4560     1.1860 os         1 F3D      -0.287900
     21 C16          5.6420     1.3480     1.7470 ca         1 F3D      -0.177000
     22 C17          4.2690     1.2430     1.7410 ca         1 F3D      -0.051000
     23 C           -0.5100     1.4370    -0.1190 c3         1 F3D       0.009900
     24 C25          2.2430     0.0010    -1.2730 ca         1 F3D      -0.042800
     25 C30          2.1520    -1.0950    -2.1380 ca         1 F3D      -0.093000
     26 C29          2.8460    -1.0860    -3.3290 ca         1 F3D      -0.100000
     27 C28          3.6290     0.0020    -3.6710 ca         1 F3D      -0.102000
     28 C27          3.7250     1.0900    -2.8200 ca         1 F3D      -0.100000
     29 C26          3.0320     1.1000    -1.6280 ca         1 F3D      -0.093000
     30 C18          1.4490    -0.1200     2.4530 ca         1 F3D      -0.076800
     31 C24          1.4010     0.9560     3.3290 ca         1 F3D      -0.012000
     32 C23          0.7040     0.8310     4.5330 ca         1 F3D      -0.265900
     33 C22          0.4530     1.7310     5.6560 cc         1 F3D       0.437800
     34 N3          -0.2690     1.0870     6.5270 nd         1 F3D      -0.636100
     35 C21          0.0590    -0.3820     4.8450 ca         1 F3D      -0.184200
     36 C20          0.1200    -1.4490     3.9500 ca         1 F3D      -0.122000
     37 C19          0.8020    -1.3210     2.7770 ca         1 F3D      -0.047000
     38 H1          -0.3610    -0.4360     0.9240 hc         1 F3D       0.024200
     39 H2          -0.3610    -0.5820    -0.8390 hc         1 F3D       0.024200
     40 H3          -1.0710    -0.8980     6.5570 hn         1 F3D       0.152700
     41 H4           3.9760    -1.7570     0.1720 ha         1 F3D       0.108000
     42 H5           6.4280    -1.5510     0.1800 ha         1 F3D       0.118000
     43 H6           8.0300     1.6790     2.8250 h1         1 F3D       0.001200
     44 H7           7.9660     2.5060     1.2630 h1         1 F3D       0.001200
     45 H8          10.2780     2.4200     2.2240 h1         1 F3D       0.014200
     46 H9          10.2120     0.6550     2.1380 h1         1 F3D       0.014200
     47 H10         12.1610     2.4260     0.6760 h1         1 F3D       0.002200
     48 H11         12.0950     0.6600     0.5910 h1         1 F3D       0.002200
     49 H12         11.7430     2.5580    -1.7570 hc         1 F3D       0.036200
     50 H13         11.6760     0.7930    -1.8420 hc         1 F3D       0.036200
     51 H14         14.0050     0.6650    -1.0210 hc         1 F3D       0.027700
     52 H15         14.0720     2.4310    -0.9360 hc         1 F3D       0.027700
     53 H16         16.2220     0.6130    -1.6720 h1         1 F3D       0.008700
     54 H17         17.3300     1.5090    -2.7210 h1         1 F3D       0.008700
     55 H18         16.2880     2.3790    -1.5860 h1         1 F3D       0.008700
     56 H19         15.2440     0.8240    -5.2090 h1         1 F3D       0.008700
     57 H20         15.3180     2.5890    -5.1210 h1         1 F3D       0.008700
     58 H21         16.7620     1.6250    -4.7810 h1         1 F3D       0.008700
     59 H22          9.9200     2.4730    -0.1320 hn         1 F3D       0.253800
     60 H24          6.1160     2.2180     2.1850 ha         1 F3D       0.118000
     61 H25          3.6630     2.0270     2.1800 ha         1 F3D       0.108000
     62 H26         -0.6890     1.6720    -1.1610 hc         1 F3D       0.003033
     63 H27          0.2320     2.1180     0.2820 hc         1 F3D       0.003033
     64 H28         -1.4330     1.5400     0.4380 hc         1 F3D       0.003033
     65 H29          1.5400    -1.9470    -1.8720 ha         1 F3D       0.108000
     66 H30          2.7770    -1.9340    -4.0000 ha         1 F3D       0.102000
     67 H31          4.1740     0.0010    -4.6080 ha         1 F3D       0.102000
     68 H32          4.3390     1.9390    -3.0960 ha         1 F3D       0.102000
     69 H33          3.1080     1.9520    -0.9630 ha         1 F3D       0.108000
     70 H34          1.7810     1.9230     3.0200 ha         1 F3D       0.108000
     71 H35          0.8070     2.7510     5.7490 h4         1 F3D       0.013800
     72 H36         -0.3760    -2.3830     4.1880 ha         1 F3D       0.105000
     73 H37          0.8510    -2.1580     2.0920 ha         1 F3D       0.109000
@<TRIPOS>BOND
     1     1     3 1   
     2     1    23 1   
     3     1    38 1   
     4     1    39 1   
     5     2    16 1   
     6     2    17 1   
     7     2    18 1   
     8     3     5 2   
     9     3    24 1   
    10     4    34 1   
    11     4    35 1   
    12     4    40 1   
    13     5     6 1   
    14     5    30 1   
    15     6     7 ar  
    16     6    22 ar  
    17     7     9 ar  
    18     7    41 1   
    19     8    16 2   
    20     9    10 ar  
    21     9    42 1   
    22    10    20 1   
    23    10    21 ar  
    24    11    12 1   
    25    11    20 1   
    26    11    43 1   
    27    11    44 1   
    28    12    19 1   
    29    12    45 1   
    30    12    46 1   
    31    13    14 1   
    32    13    19 1   
    33    13    47 1   
    34    13    48 1   
    35    14    15 1   
    36    14    49 1   
    37    14    50 1   
    38    15    16 1   
    39    15    51 1   
    40    15    52 1   
    41    17    53 1   
    42    17    54 1   
    43    17    55 1   
    44    18    56 1   
    45    18    57 1   
    46    18    58 1   
    47    19    59 1   
    48    21    22 ar  
    49    21    60 1   
    50    22    61 1   
    51    23    62 1   
    52    23    63 1   
    53    23    64 1   
    54    24    25 ar  
    55    24    29 ar  
    56    25    26 ar  
    57    25    65 1   
    58    26    27 ar  
    59    26    66 1   
    60    27    28 ar  
    61    27    67 1   
    62    28    29 ar  
    63    28    68 1   
    64    29    69 1   
    65    30    31 ar  
    66    30    37 ar  
    67    31    32 ar  
    68    31    70 1   
    69    32    33 1   
    70    32    35 ar  
    71    33    34 2   
    72    33    71 1   
    73    35    36 ar  
    74    36    37 ar  
    75    36    72 1   
    76    37    73 1   
@<TRIPOS>SUBSTRUCTURE
     1 F3D         1 TEMP              0 ****  ****    0 ROOT
