@<TRIPOS>MOLECULE
F3F
   33    35     1     0     0
SMALL
bcc


@<TRIPOS>ATOM
      1 CAA        -0.1210   -0.2770    0.0890 ca        1 F3F     -0.094500
      2 CAB         1.2490   -0.0260    0.1080 ca        1 F3F     -0.134000
      3 CAC         1.8150    0.7060    1.1530 ca        1 F3F     -0.108000
      4 CAD         1.0080    1.1890    2.1840 ca        1 F3F     -0.134000
      5 CAE        -0.3630    0.9440    2.1760 ca        1 F3F     -0.094500
      6 CAF        -0.9370    0.2080    1.1250 ca        1 F3F     -0.005000
      7 CAG        -2.3210   -0.0410    1.1140 cg        1 F3F     -0.012000
      8 CAH        -3.5010   -0.2570    1.1000 ch        1 F3F     -0.241000
      9 CAI        -4.8650   -0.5140    1.0700 cd        1 F3F      0.438700
     10 OAM        -5.6340    0.0050    2.1230 os        1 F3F     -0.336800
     11 CAJ        -5.6760   -1.2090    0.1790 cc        1 F3F     -0.258300
     12 CAK        -7.0170   -1.1270    0.6890 cc        1 F3F     -0.140300
     13 CAL        -6.9570   -0.3870    1.8650 cd        1 F3F      0.141200
     14 CAN        -8.0090    0.0020    2.7890 c         1 F3F      0.462200
     15 OAY        -9.1850   -0.3390    2.5760 o         1 F3F     -0.554100
     16 SAO        -7.4240    0.9310    4.1140 ss        1 F3F     -0.029900
     17 CAP        -8.7700    1.2910    5.0730 cc        1 F3F      0.398800
     18 NAT       -10.1080    0.9400    4.8930 na        1 F3F     -0.374700
     19 CAS       -10.7760    1.5020    5.9830 cc        1 F3F      0.251800
     20 CAU       -12.2700    1.3960    6.2400 c3        1 F3F      0.645600
     21 FAW       -12.5780    0.7830    7.4240 f         1 F3F     -0.219300
     22 FAX       -12.9440    0.6770    5.2830 f         1 F3F     -0.219300
     23 FAV       -12.9030    2.6080    6.2820 f         1 F3F     -0.219300
     24 NAR        -9.8630    2.1580    6.7730 nd        1 F3F     -0.270000
     25 NAQ        -8.6800    2.0360    6.2410 nd        1 F3F     -0.312000
     26 HAA        -0.5670   -0.8530   -0.7350 ha        1 F3F      0.143000
     27 HAB         1.8850   -0.4060   -0.7050 ha        1 F3F      0.139500
     28 HAC         2.8970    0.9010    1.1640 ha        1 F3F      0.138000
     29 HAD         1.4550    1.7660    3.0080 ha        1 F3F      0.139500
     30 HAE        -0.9990    1.3250    2.9890 ha        1 F3F      0.143000
     31 HAJ        -5.3640   -1.7180   -0.7290 ha        1 F3F      0.178000
     32 HAK        -7.9100   -1.5610    0.2420 ha        1 F3F      0.182000
     33 HAT       -10.5010    0.4060    4.1500 hn        1 F3F      0.353700
@<TRIPOS>BOND
     1    1    2 ar  
     2    1    6 ar  
     3    1   26 1   
     4    2    3 ar  
     5    2   27 1   
     6    3    4 ar  
     7    3   28 1   
     8    4    5 ar  
     9    4   29 1   
    10    5    6 ar  
    11    5   30 1   
    12    6    7 1   
    13    7    8 3   
    14    8    9 1   
    15    9   10 1   
    16    9   11 2   
    17   10   13 1   
    18   11   12 1   
    19   11   31 1   
    20   12   13 2   
    21   12   32 1   
    22   13   14 1   
    23   14   15 2   
    24   14   16 1   
    25   16   17 1   
    26   17   18 1   
    27   17   25 2   
    28   18   19 1   
    29   18   33 1   
    30   19   20 1   
    31   19   24 2   
    32   20   21 1   
    33   20   22 1   
    34   20   23 1   
    35   24   25 1   
@<TRIPOS>SUBSTRUCTURE
     1 F3F         1 TEMP              0 ****  ****    0 ROOT
