@<TRIPOS>MOLECULE
molecule
   87    93     1     0     0
SMALL
bcc


@<TRIPOS>ATOM
      1 C1           0.0000     0.0000     0.0000 c3         1 F3J      -0.096900
      2 C2           1.5310     0.0000     0.0000 c3         1 F3J       0.096000
      3 C3           1.5070     1.0370     2.3060 c3         1 F3J       0.096000
      4 C4          -0.0240     1.0240     2.2800 c3         1 F3J      -0.096900
      5 C5           3.3590    -4.5860     5.1770 c3         1 F3J       0.129700
      6 C7           8.5150    -0.4490    11.1620 cy         1 F3J      -0.121400
      7 C11          3.2720    -0.9750     3.2410 ca         1 F3J      -0.128600
      8 C12          3.3100    -2.1950     3.9220 ca         1 F3J      -0.149000
      9 C13          3.6820    -2.2310     5.2510 ca         1 F3J       0.094100
     10 C14          4.0190    -1.0480     5.9120 ca         1 F3J       0.154600
     11 C15          3.9820     0.1650     5.2340 ca         1 F3J      -0.123000
     12 C16          3.6170     0.2040     3.9060 ca         1 F3J      -0.131000
     13 C17          5.2010    -0.0840     7.7760 ca         1 F3J       0.935900
     14 C18          6.4820     1.8000     7.4190 ca         1 F3J       0.477200
     15 C19          6.7740     1.8500     8.7760 ca         1 F3J      -0.255000
     16 C20          6.2120     0.8820     9.6100 ca         1 F3J       0.753200
     17 C21          5.9680     2.0220    11.7010 ca         1 F3J       0.195600
     18 C22          4.9980     1.8630    12.6800 ca         1 F3J      -0.150000
     19 C25          5.9290     4.4090    12.0730 ca         1 F3J      -0.060000
     20 C27          7.5210     3.4880    10.4090 c          1 F3J       0.720100
     21 N1           7.6370     2.8290     9.2650 n          1 F3J      -0.355000
     22 C28          8.7920     3.1650     8.4280 c3         1 F3J       0.087300
     23 N4           5.6970     0.8350     6.9620 nb         1 F3J      -0.785000
     24 C26          6.4590     3.3010    11.4040 ca         1 F3J      -0.155600
     25 C24          4.9540     4.2360    13.0310 ca         1 F3J      -0.149000
     26 C23          4.4940     2.9660    13.3400 ca         1 F3J      -0.096000
     27 N2           6.4140     0.9160    10.9820 na         1 F3J      -0.721700
     28 C29          7.0850    -0.1930    11.6630 cy         1 F3J       0.236500
     29 N3           5.4520    -0.0700     9.0780 nb         1 F3J      -0.798000
     30 N5           4.3940    -1.0840     7.2550 nu         1 F3J      -0.736300
     31 C           -0.5070     1.1770     0.8360 c3         1 F3J       0.172500
     32 C31          6.7220    -1.5760    11.0940 cy         1 F3J      -0.121400
     33 C32          7.9000    -1.3950    10.1190 cy         1 F3J      -0.102400
     34 O2           3.7180    -3.4160     5.9160 os         1 F3J      -0.338900
     35 O3           3.3370    -1.7400     1.0370 o          1 F3J      -0.608100
     36 N6           2.0040     0.0000     1.3920 n          1 F3J      -0.485800
     37 N7          -1.9760     1.1990     0.8110 n3         1 F3J      -0.729600
     38 C30         -2.5000     2.3180     1.6040 c3         1 F3J       0.160300
     39 C33         -4.0290     2.2600     1.6180 c3         1 F3J       0.163800
     40 N8          -4.5310     2.3150     0.2380 n3         1 F3J      -0.734600
     41 C35         -4.0080     1.1950    -0.5560 c3         1 F3J       0.163800
     42 C36         -2.4780     1.2540    -0.5700 c3         1 F3J       0.160300
     43 C37         -6.0000     2.3370     0.2130 c3         1 F3J       0.153100
     44 H1          -0.3600     0.0990    -1.0170 hc         1 F3J       0.058700
     45 H2          -0.3600    -0.9280     0.4280 hc         1 F3J       0.058700
     46 H3           1.8930    -0.8870    -0.5060 h1         1 F3J       0.061450
     47 H4           1.8940     0.8870    -0.5060 h1         1 F3J       0.061450
     48 H5           1.8670     2.0070     1.9850 h1         1 F3J       0.061450
     49 H6           1.8530     0.8300     3.3120 h1         1 F3J       0.061450
     50 H7          -0.4020     1.8470     2.8750 hc         1 F3J       0.058700
     51 H8          -0.3840     0.0850     2.6830 hc         1 F3J       0.058700
     52 H9           3.4280    -5.4540     5.8210 h1         1 F3J       0.045367
     53 H10          4.0340    -4.7040     4.3380 h1         1 F3J       0.045367
     54 H11          2.3440    -4.4860     4.8130 h1         1 F3J       0.045367
     55 H13          9.1330    -0.9630    11.8890 hc         1 F3J       0.068200
     56 H14          3.0470    -3.1120     3.4080 ha         1 F3J       0.155000
     57 H15          4.2470     1.0800     5.7500 ha         1 F3J       0.179000
     58 H16          3.5890     1.1510     3.3800 ha         1 F3J       0.141000
     59 H17          6.8830     2.5470     6.7450 h4         1 F3J       0.039100
     60 H18          4.6350     0.8720    12.9260 ha         1 F3J       0.145000
     61 H19          6.2840     5.4040    11.8360 ha         1 F3J       0.152000
     62 H20          8.9850     2.3530     7.7370 h1         1 F3J       0.051700
     63 H21          9.6610     3.3180     9.0570 h1         1 F3J       0.051700
     64 H22          8.5840     4.0710     7.8720 h1         1 F3J       0.051700
     65 H23          4.5540     5.0960    13.5530 ha         1 F3J       0.137000
     66 H24          3.7270     2.8390    14.0950 ha         1 F3J       0.135000
     67 H25          7.0210    -0.1560    12.7440 h1         1 F3J       0.073700
     68 H26          4.0470    -1.8080     7.8520 hn         1 F3J       0.478800
     69 H27         -0.1210     2.1020     0.4250 h1         1 F3J       0.025700
     70 H28          6.8790    -2.3800    11.8030 hc         1 F3J       0.068200
     71 H29          5.7590    -1.5910    10.5980 hc         1 F3J       0.068200
     72 H30          7.6180    -0.8900     9.2030 hc         1 F3J       0.054700
     73 H31          8.4750    -2.3020     9.9770 hc         1 F3J       0.054700
     74 H33         -2.1800     3.2540     1.1630 h1         1 F3J       0.041950
     75 H34         -2.1280     2.2450     2.6190 h1         1 F3J       0.041950
     76 H35         -4.3510     1.3340     2.0810 h1         1 F3J       0.040450
     77 H36         -4.4170     3.1030     2.1760 h1         1 F3J       0.040450
     78 H38         -4.3280     0.2600    -0.1140 h1         1 F3J       0.040450
     79 H39         -4.3800     1.2680    -1.5710 h1         1 F3J       0.040450
     80 H40         -2.1580     2.1800    -1.0330 h1         1 F3J       0.041950
     81 H41         -2.0900     0.4110    -1.1290 h1         1 F3J       0.041950
     82 H42         -6.3820     1.4250     0.6550 h1         1 F3J       0.031700
     83 H43         -6.3590     3.1900     0.7770 h1         1 F3J       0.031700
     84 H44         -6.3430     2.4120    -0.8120 h1         1 F3J       0.031700
     85 C6           2.8770    -0.9330     1.8210 c          1 F3J       0.680700
     86 O1           8.3710     4.3220    10.6570 o          1 F3J      -0.643500
     87 H12          8.9730     0.4280    10.7210 hc         1 F3J       0.068200
@<TRIPOS>BOND
     1     5    34 1
     2    34     9 1
     3     9     8 ar
     4     9    10 ar
     5    23    14 ar
     6    23    13 ar
     7    30    10 1
     8    30    13 1
     9     8     7 ar
    10    14    15 ar
    11    10    11 ar
    12    13    29 ar
    13     1    31 1
    14     1     2 1
    15    42    41 1
    16    42    37 1
    17    31    37 1
    18    31     4 1
    19    22    21 1
    20     7    85 1
    21     7    12 ar
    22    15    21 1
    23    15    16 ar
    24     2    36 1
    25     3    36 1
    26     3     4 1
    27    41    40 1
    28    36    85 1
    29    37    38 1
    30    11    12 ar
    31    85    35 2
    32    29    16 ar
    33    40    43 1
    34    40    39 1
    35    21    20 1
    36    38    39 1
    37    16    27 1
    38    20    86 2
    39    20    24 1
    40    27    17 1
    41    27    28 1
    42    24    17 ar
    43    24    19 ar
    44    32    28 1
    45    32    33 1
    46    17    18 ar
    47    19    25 ar
    48    28     6 1
    49    18    26 ar
    50    25    26 ar
    51    33     6 1
    52     1    44 1
    53     1    45 1
    54     2    46 1
    55     2    47 1
    56     3    48 1
    57     3    49 1
    58     4    50 1
    59     4    51 1
    60     5    52 1
    61     5    53 1
    62     5    54 1
    63     6    87 1
    64     6    55 1
    65     8    56 1
    66    11    57 1
    67    12    58 1
    68    14    59 1
    69    18    60 1
    70    19    61 1
    71    22    62 1
    72    22    63 1
    73    22    64 1
    74    25    65 1
    75    26    66 1
    76    28    67 1
    77    30    68 1
    78    31    69 1
    79    32    70 1
    80    32    71 1
    81    33    72 1
    82    33    73 1
    83    38    74 1
    84    38    75 1
    85    39    76 1
    86    39    77 1
    87    41    78 1
    88    41    79 1
    89    42    80 1
    90    42    81 1
    91    43    82 1
    92    43    83 1
    93    43    84 1
@<TRIPOS>SUBSTRUCTURE
     1 F3J         1 TEMP              0 ****  ****    0 ROOT
