@<TRIPOS>MOLECULE
F3J
   87    93     1     0     0
SMALL
bcc


@<TRIPOS>ATOM
      1 C1           0.0000     0.0000     0.0000 c3         1 F3J      -0.052900
      2 C2           1.5310     0.0000     0.0000 c3         1 F3J       0.031000
      3 C3           1.5070     1.0370     2.3060 c3         1 F3J       0.031000
      4 C4          -0.0240     1.0240     2.2800 c3         1 F3J      -0.052900
      5 C5           3.3590    -4.5860     5.1770 c3         1 F3J       0.247700
      6 C7           8.5150    -0.4490    11.1620 cy         1 F3J      -0.068400
      7 C11          3.2720    -0.9750     3.2410 ca         1 F3J      -0.125600
      8 C12          3.3100    -2.1950     3.9220 ca         1 F3J      -0.133000
      9 C13          3.6820    -2.2310     5.2510 ca         1 F3J       0.108100
     10 C14          4.0190    -1.0480     5.9120 ca         1 F3J      -0.019400
     11 C15          3.9820     0.1650     5.2340 ca         1 F3J      -0.108000
     12 C16          3.6170     0.2040     3.9060 ca         1 F3J      -0.113000
     13 C17          5.2010    -0.0840     7.7760 ca         1 F3J       0.699900
     14 C18          6.4820     1.8000     7.4190 ca         1 F3J       0.472200
     15 C19          6.7740     1.8500     8.7760 ca         1 F3J      -0.400000
     16 C20          6.2120     0.8820     9.6100 ca         1 F3J       0.587200
     17 C21          5.9680     2.0220    11.7010 ca         1 F3J       0.056600
     18 C22          4.9980     1.8630    12.6800 ca         1 F3J      -0.125000
     19 C25          5.9290     4.4090    12.0730 ca         1 F3J      -0.026000
     20 C27          7.5210     3.4880    10.4090 c          1 F3J       0.626100
     21 N1           7.6370     2.8290     9.2650 n          1 F3J       0.056000
     22 C28          8.7920     3.1650     8.4280 c3         1 F3J       0.047300
     23 N4           5.6970     0.8350     6.9620 nb         1 F3J      -0.680000
     24 C26          6.4590     3.3010    11.4040 ca         1 F3J      -0.156600
     25 C24          4.9540     4.2360    13.0310 ca         1 F3J      -0.121000
     26 C23          4.4940     2.9660    13.3400 ca         1 F3J      -0.067000
     27 N2           6.4140     0.9160    10.9820 na         1 F3J      -0.342700
     28 C29          7.0850    -0.1930    11.6630 cy         1 F3J       0.135500
     29 N3           5.4520    -0.0700     9.0780 nb         1 F3J      -0.686000
     30 N5           4.3940    -1.0840     7.2550 nu         1 F3J      -0.256300
     31 C           -0.5070     1.1770     0.8360 c3         1 F3J       0.131500
     32 C31          6.7220    -1.5760    11.0940 cy         1 F3J      -0.068400
     33 C32          7.9000    -1.3950    10.1190 cy         1 F3J      -0.057400
     34 O2           3.7180    -3.4160     5.9160 os         1 F3J      -0.318900
     35 O3           3.3370    -1.7400     1.0370 o          1 F3J      -0.649100
     36 N6           2.0040     0.0000     1.3920 n          1 F3J      -0.144800
     37 N7          -1.9760     1.1990     0.8110 n3         1 F3J      -0.538600
     38 C30         -2.5000     2.3180     1.6040 c3         1 F3J       0.141800
     39 C33         -4.0290     2.2600     1.6180 c3         1 F3J       0.155800
     40 N8          -4.5310     2.3150     0.2380 n3         1 F3J      -0.549600
     41 C35         -4.0080     1.1950    -0.5560 c3         1 F3J       0.155800
     42 C36         -2.4780     1.2540    -0.5700 c3         1 F3J       0.141800
     43 C37         -6.0000     2.3370     0.2130 c3         1 F3J       0.189100
     44 H1          -0.3600     0.0990    -1.0170 hc         1 F3J       0.033200
     45 H2          -0.3600    -0.9280     0.4280 hc         1 F3J       0.033200
     46 H3           1.8930    -0.8870    -0.5060 h1         1 F3J       0.038200
     47 H4           1.8940     0.8870    -0.5060 h1         1 F3J       0.038200
     48 H5           1.8670     2.0070     1.9850 h1         1 F3J       0.038200
     49 H6           1.8530     0.8300     3.3120 h1         1 F3J       0.038200
     50 H7          -0.4020     1.8470     2.8750 hc         1 F3J       0.033200
     51 H8          -0.3840     0.0850     2.6830 hc         1 F3J       0.033200
     52 H9           3.4280    -5.4540     5.8210 h1         1 F3J       0.001367
     53 H10          4.0340    -4.7040     4.3380 h1         1 F3J       0.001367
     54 H11          2.3440    -4.4860     4.8130 h1         1 F3J       0.001367
     55 H13          9.1330    -0.9630    11.8890 hc         1 F3J       0.039200
     56 H14          3.0470    -3.1120     3.4080 ha         1 F3J       0.136000
     57 H15          4.2470     1.0800     5.7500 ha         1 F3J       0.156000
     58 H16          3.5890     1.1510     3.3800 ha         1 F3J       0.119000
     59 H17          6.8830     2.5470     6.7450 h4         1 F3J      -0.004900
     60 H18          4.6350     0.8720    12.9260 ha         1 F3J       0.117000
     61 H19          6.2840     5.4040    11.8360 ha         1 F3J       0.121000
     62 H20          8.9850     2.3530     7.7370 h1         1 F3J       0.022700
     63 H21          9.6610     3.3180     9.0570 h1         1 F3J       0.022700
     64 H22          8.5840     4.0710     7.8720 h1         1 F3J       0.022700
     65 H23          4.5540     5.0960    13.5530 ha         1 F3J       0.108000
     66 H24          3.7270     2.8390    14.0950 ha         1 F3J       0.104000
     67 H25          7.0210    -0.1560    12.7440 h1         1 F3J       0.046700
     68 H26          4.0470    -1.8080     7.8520 hn         1 F3J       0.301800
     69 H27         -0.1210     2.1020     0.4250 h1         1 F3J       0.012700
     70 H28          6.8790    -2.3800    11.8030 hc         1 F3J       0.039200
     71 H29          5.7590    -1.5910    10.5980 hc         1 F3J       0.039200
     72 H30          7.6180    -0.8900     9.2030 hc         1 F3J       0.028700
     73 H31          8.4750    -2.3020     9.9770 hc         1 F3J       0.028700
     74 H33         -2.1800     3.2540     1.1630 h1         1 F3J       0.018950
     75 H34         -2.1280     2.2450     2.6190 h1         1 F3J       0.018950
     76 H35         -4.3510     1.3340     2.0810 h1         1 F3J       0.013700
     77 H36         -4.4170     3.1030     2.1760 h1         1 F3J       0.013700
     78 H38         -4.3280     0.2600    -0.1140 h1         1 F3J       0.013700
     79 H39         -4.3800     1.2680    -1.5710 h1         1 F3J       0.013700
     80 H40         -2.1580     2.1800    -1.0330 h1         1 F3J       0.018950
     81 H41         -2.0900     0.4110    -1.1290 h1         1 F3J       0.018950
     82 H42         -6.3820     1.4250     0.6550 h1         1 F3J       0.000033
     83 H43         -6.3590     3.1900     0.7770 h1         1 F3J       0.000033
     84 H44         -6.3430     2.4120    -0.8120 h1         1 F3J       0.000033
     85 C6           2.8770    -0.9330     1.8210 c          1 F3J       0.613700
     86 O1           8.3710     4.3220    10.6570 o          1 F3J      -0.686500
     87 H12          8.9730     0.4280    10.7210 hc         1 F3J       0.039200
@<TRIPOS>BOND
     1     1     2 1   
     2     1    31 1   
     3     1    44 1   
     4     1    45 1   
     5     2    36 1   
     6     2    46 1   
     7     2    47 1   
     8     3     4 1   
     9     3    36 1   
    10     3    48 1   
    11     3    49 1   
    12     4    31 1   
    13     4    50 1   
    14     4    51 1   
    15     5    34 1   
    16     5    52 1   
    17     5    53 1   
    18     5    54 1   
    19     6    28 1   
    20     6    33 1   
    21     6    55 1   
    22     6    87 1   
    23     7     8 ar  
    24     7    12 ar  
    25     7    85 1   
    26     8     9 ar  
    27     8    56 1   
    28     9    10 ar  
    29     9    34 1   
    30    10    11 ar  
    31    10    30 1   
    32    11    12 ar  
    33    11    57 1   
    34    12    58 1   
    35    13    23 ar  
    36    13    29 ar  
    37    13    30 1   
    38    14    15 ar  
    39    14    23 ar  
    40    14    59 1   
    41    15    16 ar  
    42    15    21 1   
    43    16    27 1   
    44    16    29 ar  
    45    17    18 ar  
    46    17    24 ar  
    47    17    27 1   
    48    18    26 ar  
    49    18    60 1   
    50    19    24 ar  
    51    19    25 ar  
    52    19    61 1   
    53    20    21 1   
    54    20    24 1   
    55    20    86 2   
    56    21    22 1   
    57    22    62 1   
    58    22    63 1   
    59    22    64 1   
    60    25    26 ar  
    61    25    65 1   
    62    26    66 1   
    63    27    28 1   
    64    28    32 1   
    65    28    67 1   
    66    30    68 1   
    67    31    37 1   
    68    31    69 1   
    69    32    33 1   
    70    32    70 1   
    71    32    71 1   
    72    33    72 1   
    73    33    73 1   
    74    35    85 2   
    75    36    85 1   
    76    37    38 1   
    77    37    42 1   
    78    38    39 1   
    79    38    74 1   
    80    38    75 1   
    81    39    40 1   
    82    39    76 1   
    83    39    77 1   
    84    40    41 1   
    85    40    43 1   
    86    41    42 1   
    87    41    78 1   
    88    41    79 1   
    89    42    80 1   
    90    42    81 1   
    91    43    82 1   
    92    43    83 1   
    93    43    84 1   
@<TRIPOS>SUBSTRUCTURE
     1 F3J         1 TEMP              0 ****  ****    0 ROOT
