@<TRIPOS>MOLECULE
molecule
   40    39     1     0     0
SMALL
bcc


@<TRIPOS>ATOM
      1 C1           0.0000     0.0000     0.0000 c3         1 F3P      -0.124100
      2 C2           1.5220     0.0000     0.0000 c3         1 F3P       0.148600
      3 C3           2.1740     0.0000     1.3980 c3         1 F3P       0.180800
      4 C4           1.8840     1.3030     2.1790 c3         1 F3P      -0.124400
      5 C5           2.5470     1.4090     3.5560 c3         1 F3P      -0.051400
      6 C6           2.1350     2.7040     4.2660 c3         1 F3P      -0.070400
      7 C7           2.7500     2.8580     5.6690 c3         1 F3P      -0.075700
      8 C8           2.3670     1.7100     6.6040 c3         1 F3P      -0.084600
      9 C9           2.3130     4.1910     6.2830 c3         1 F3P      -0.084600
     10 C10          1.7650    -1.2340     2.2080 c3         1 F3P      -0.080100
     11 F            1.9190    -1.1310    -0.6560 f          1 F3P      -0.230300
     12 O1           3.5980    -0.0770     1.2390 os         1 F3P      -0.545200
     13 PA           4.3670     1.0790     0.4240 p5         1 F3P       1.343800
     14 O1A          4.2120     2.4520     1.0100 o          1 F3P      -0.837000
     15 O2A          5.8980     0.5650     0.3260 o          1 F3P      -0.837000
     16 O3A          3.8320     0.9420    -1.0960 os         1 F3P      -0.692800
     17 PB           4.2790     1.7020    -2.4490 p5         1 F3P       1.263900
     18 O2B          3.8340     3.2310    -2.1740 o          1 F3P      -0.940167
     19 O3B          3.2030     1.1860    -3.5390 o          1 F3P      -0.940167
     20 O1B          5.7170     1.5130    -2.8290 o          1 F3P      -0.940167
     21 H11         -0.3610    -0.9320    -0.4180 hc         1 F3P       0.019700
     22 H12         -0.3610     0.1030     1.0160 hc         1 F3P       0.019700
     23 H13         -0.3610     0.8280    -0.5980 hc         1 F3P       0.019700
     24 H2           1.8720     0.8660    -0.5490 h1         1 F3P       0.158700
     25 H41          2.2190     2.1400     1.5770 hc         1 F3P       0.061700
     26 H42          0.8120     1.3870     2.3120 hc         1 F3P       0.061700
     27 H51          3.6230     1.3960     3.4350 hc         1 F3P       0.040200
     28 H52          2.2470     0.5620     4.1610 hc         1 F3P       0.040200
     29 H61          1.0560     2.7220     4.3560 hc         1 F3P       0.039700
     30 H62          2.4460     3.5460     3.6580 hc         1 F3P       0.039700
     31 H7           3.8280     2.8670     5.5680 hc         1 F3P       0.057700
     32 H81          2.9710     0.8410     6.3750 hc         1 F3P       0.019200
     33 H82          1.3190     1.4680     6.4680 hc         1 F3P       0.019200
     34 H83          2.5380     2.0080     7.6310 hc         1 F3P       0.019200
     35 H91          1.2400     4.1840     6.4360 hc         1 F3P       0.019200
     36 H92          2.8120     4.3310     7.2350 hc         1 F3P       0.019200
     37 H93          2.5770     5.0010     5.6140 hc         1 F3P       0.019200
     38 H101         2.3110    -1.2490     3.1430 hc         1 F3P       0.015033
     39 H102         0.7020    -1.1960     2.4110 hc         1 F3P       0.015033
     40 H103         1.9930    -2.1290     1.6420 hc         1 F3P       0.015033
@<TRIPOS>BOND
     1     1     2 1
     2     1    21 1
     3     1    22 1
     4     1    23 1
     5     2    11 1
     6     2     3 1
     7     2    24 1
     8     3     4 1
     9     3    10 1
    10     3    12 1
    11     4     5 1
    12     4    25 1
    13     4    26 1
    14     5     6 1
    15     5    27 1
    16     5    28 1
    17     6     7 1
    18     6    29 1
    19     6    30 1
    20     7     8 1
    21     7     9 1
    22     7    31 1
    23     8    32 1
    24     8    33 1
    25     8    34 1
    26     9    35 1
    27     9    36 1
    28     9    37 1
    29    10    38 1
    30    10    39 1
    31    10    40 1
    32    12    13 1
    33    13    16 1
    34    13    14 1
    35    13    15 1
    36    16    17 1
    37    17    20 1
    38    17    18 1
    39    17    19 1
@<TRIPOS>SUBSTRUCTURE
     1 F3P         1 TEMP              0 ****  ****    0 ROOT
