@<TRIPOS>MOLECULE
F3P
   40    39     1     0     0
SMALL
bcc


@<TRIPOS>ATOM
      1 C1          0.3690   -0.1320   -0.3370 c3        1 F3P     -0.097100
      2 C2          1.8680   -0.3890   -0.1980 c3        1 F3P      0.069600
      3 C3          2.3480   -0.4000    1.2990 c3        1 F3P      0.288800
      4 C4          1.6660    0.7850    2.0150 c3        1 F3P     -0.140400
      5 C5          2.2610    1.0800    3.3740 c3        1 F3P     -0.083400
      6 C6          1.9130    2.4860    3.8160 c3        1 F3P     -0.098400
      7 C7          2.7850    2.9560    4.9710 c3        1 F3P     -0.076700
      8 C8          2.4380    2.2510    6.2660 c3        1 F3P     -0.076100
      9 C9          2.6630    4.4560    5.1410 c3        1 F3P     -0.076100
     10 C10         1.8610   -1.7060    1.9660 c3        1 F3P     -0.097100
     11 F           2.1940   -1.5850   -0.8360 f         1 F3P     -0.297300
     12 O1          3.7250   -0.4380    1.3720 os        1 F3P     -0.617200
     13 PA          4.9660    0.7030    1.1220 p5        1 F3P      1.609800
     14 O1A         5.3800    1.0400    2.5140 o         1 F3P     -0.914500
     15 O2A         5.9530   -0.0160    0.2750 o         1 F3P     -0.914500
     16 O3A         4.1660    1.8420    0.3980 os        1 F3P     -0.827800
     17 PB          3.2240    3.1250   -0.3320 p5        1 F3P      1.465900
     18 O2B         4.2160    4.1020   -0.8920 o         1 F3P     -0.955500
     19 O3B         2.4020    3.6370    0.8260 o         1 F3P     -0.955500
     20 O1B         2.4000    2.3700   -1.3450 o         1 F3P     -0.955500
     21 H11         0.1870    0.9550   -0.1570 hc        1 F3P      0.015033
     22 H12        -0.2360   -0.7450    0.3730 hc        1 F3P      0.015033
     23 H13         0.0400   -0.3810   -1.3750 hc        1 F3P      0.015033
     24 H2          2.4020    0.4880   -0.7280 h1        1 F3P      0.194700
     25 H41         1.7820    1.7110    1.3600 hc        1 F3P      0.067200
     26 H42         0.5730    0.5630    2.1230 hc        1 F3P      0.067200
     27 H51         1.9100    0.3320    4.1330 hc        1 F3P      0.045200
     28 H52         3.3890    0.9860    3.2770 hc        1 F3P      0.045200
     29 H61         0.8340    2.5490    4.1140 hc        1 F3P      0.069200
     30 H62         2.0780    3.1720    2.9230 hc        1 F3P      0.069200
     31 H7          3.8540    2.7110    4.6990 hc        1 F3P      0.099700
     32 H81         1.3800    2.4580    6.5600 hc        1 F3P      0.007533
     33 H82         2.5620    1.1490    6.1400 hc        1 F3P      0.007533
     34 H83         3.1020    2.5940    7.0970 hc        1 F3P      0.007533
     35 H91         1.6160    4.7420    5.4050 hc        1 F3P      0.007533
     36 H92         2.9390    4.9610    4.1820 hc        1 F3P      0.007533
     37 H93         3.3380    4.8210    5.9530 hc        1 F3P      0.007533
     38 H101        2.3100   -2.5800    1.4410 hc        1 F3P      0.001033
     39 H102        2.1880   -1.7180    3.0320 hc        1 F3P      0.001033
     40 H103        0.7500   -1.7850    1.9240 hc        1 F3P      0.001033
@<TRIPOS>BOND
     1    1    2 1   
     2    1   21 1   
     3    1   22 1   
     4    1   23 1   
     5    2    3 1   
     6    2   11 1   
     7    2   24 1   
     8    3    4 1   
     9    3   10 1   
    10    3   12 1   
    11    4    5 1   
    12    4   25 1   
    13    4   26 1   
    14    5    6 1   
    15    5   27 1   
    16    5   28 1   
    17    6    7 1   
    18    6   29 1   
    19    6   30 1   
    20    7    8 1   
    21    7    9 1   
    22    7   31 1   
    23    8   32 1   
    24    8   33 1   
    25    8   34 1   
    26    9   35 1   
    27    9   36 1   
    28    9   37 1   
    29   10   38 1   
    30   10   39 1   
    31   10   40 1   
    32   12   13 1   
    33   13   14 1   
    34   13   15 1   
    35   13   16 1   
    36   16   17 1   
    37   17   18 1   
    38   17   19 1   
    39   17   20 1   
@<TRIPOS>SUBSTRUCTURE
     1 F3P         1 TEMP              0 ****  ****    0 ROOT
