@<TRIPOS>MOLECULE
molecule
   95   103     1     0     0
SMALL
bcc


@<TRIPOS>ATOM
      1 C1           0.0000     0.0000     0.0000 c3         1 F3Q      -0.012100
      2 C2           1.5350     0.0000     0.0000 c3         1 F3Q      -0.094400
      3 C3           1.7270     1.3540     2.0960 c3         1 F3Q       0.039300
      4 C4           2.0360     0.0000     1.4470 c3         1 F3Q      -0.101400
      5 C5          -0.4720     1.0750     0.9490 cc         1 F3Q      -0.031600
      6 N6           0.3080     1.6710     1.8780 na         1 F3Q      -0.024100
      7 C7          -0.4380     2.5980     2.5620 cc         1 F3Q      -0.082300
      8 C8          -1.7030     2.5880     2.0620 cd         1 F3Q      -0.123000
      9 C9          -1.7340     1.6160     1.0280 cd         1 F3Q      -0.243600
     10 C10         -2.8960     1.2550     0.1990 c          1 F3Q       0.723700
     11 O11         -3.0470     0.1050    -0.1710 o          1 F3Q      -0.607100
     12 N12         -3.7920     2.1980    -0.1530 n          1 F3Q      -0.276200
     13 C13          0.0500     3.4600     3.6560 ca         1 F3Q       0.045000
     14 C14          1.2200     4.2000     3.4960 ca         1 F3Q      -0.124000
     15 C15         -0.6670     3.5440     4.8670 ca         1 F3Q      -0.119600
     16 C16          0.9670     5.0870     5.7250 ca         1 F3Q       0.038100
     17 C17          1.6770     5.0080     4.5230 ca         1 F3Q       0.066100
     18 O18          2.7760     5.8100     4.6140 os         1 F3Q      -0.325900
     19 C19          2.9570     6.0590     6.0210 c3         1 F3Q       0.332200
     20 O20          1.6290     5.9390     6.5640 os         1 F3Q      -0.325900
     21 C21         -1.9080     2.7710     5.0460 c          1 F3Q       0.689700
     22 N22         -2.9950     3.3570     5.5850 n          1 F3Q      -0.484800
     23 O23         -1.9510     1.6030     4.7080 o          1 F3Q      -0.564100
     24 C24         -4.2080     2.5820     5.8960 c3         1 F3Q       0.124700
     25 C25         -5.3380     3.1020     5.0090 c3         1 F3Q      -0.052100
     26 C26         -3.0160     4.7920     5.8900 c3         1 F3Q       0.146300
     27 C27         -4.3240     5.3880     5.4330 ca         1 F3Q      -0.100300
     28 C28         -5.3920     4.6060     5.0350 ca         1 F3Q      -0.066300
     29 C29         -6.5750     5.2160     4.6350 ca         1 F3Q      -0.130000
     30 C30         -6.6880     6.5900     4.6250 ca         1 F3Q      -0.126000
     31 C31         -5.6170     7.3700     5.0150 ca         1 F3Q      -0.131000
     32 C32         -4.4350     6.7720     5.4220 ca         1 F3Q      -0.124000
     33 C33         -3.9630     1.1000     5.6090 c3         1 F3Q       0.164800
     34 C34         -0.1960     4.3630     5.8950 ca         1 F3Q      -0.095000
     35 N35         -2.8640     0.6120     6.4540 n3         1 F3Q      -0.705600
     36 C36         -2.4200    -0.7220     6.0220 c3         1 F3Q       0.122800
     37 C37         -1.2380    -1.1650     6.8890 c3         1 F3Q       0.140400
     38 O38         -1.6280    -1.1420     8.2650 os         1 F3Q      -0.430600
     39 C39         -2.0660     0.1410     8.7190 c3         1 F3Q       0.140400
     40 C40         -3.2560     0.5980     7.8700 c3         1 F3Q       0.122800
     41 C41         -4.9600     1.8340    -0.8360 ca         1 F3Q       0.053600
     42 C42         -3.5560     3.5400     0.1650 ca         1 F3Q       0.042600
     43 C43         -5.2700     0.4940    -1.0190 ca         1 F3Q      -0.157000
     44 C44         -6.4210     0.1360    -1.6910 ca         1 F3Q      -0.135500
     45 C45         -7.2690     1.1170    -2.1860 ca         1 F3Q       0.075100
     46 C46         -6.9600     2.4570    -2.0040 ca         1 F3Q      -0.135500
     47 C47         -5.8120     2.8160    -1.3260 ca         1 F3Q      -0.157000
     48 C48         -2.4660     4.2040    -0.3830 ca         1 F3Q      -0.128000
     49 C49         -2.2360     5.5280    -0.0680 ca         1 F3Q      -0.120500
     50 C50         -3.0900     6.1950     0.7920 ca         1 F3Q      -0.130000
     51 C51         -4.1760     5.5370     1.3400 ca         1 F3Q      -0.120500
     52 C52         -4.4140     4.2140     1.0250 ca         1 F3Q      -0.128000
     53 O53         -8.4010     0.7650    -2.8500 oh         1 F3Q      -0.524100
     54 H1          -0.3640     0.2100    -0.9980 hc         1 F3Q       0.073700
     55 H2          -0.3640    -0.9650     0.3320 hc         1 F3Q       0.073700
     56 H3           1.8730    -0.9130    -0.4750 hc         1 F3Q       0.053700
     57 H4           1.8740     0.9120    -0.4760 hc         1 F3Q       0.053700
     58 H5           2.3430     2.1210     1.6430 h1         1 F3Q       0.060700
     59 H6           1.9280     1.3000     3.1590 h1         1 F3Q       0.060700
     60 H7           3.1120    -0.1290     1.4310 hc         1 F3Q       0.062700
     61 H8           1.4960    -0.7660     1.9910 hc         1 F3Q       0.062700
     62 H9          -2.5620     3.0860     2.4940 ha         1 F3Q       0.164000
     63 H10          1.7720     4.1440     2.5660 ha         1 F3Q       0.150000
     64 H11          3.3260     7.0660     6.1710 h2         1 F3Q       0.074200
     65 H12         -4.4710     2.7200     6.9380 h1         1 F3Q       0.054700
     66 H13         -6.2770     2.7170     5.3880 hc         1 F3Q       0.064200
     67 H14         -5.1510     2.7820     3.9910 hc         1 F3Q       0.064200
     68 H15         -2.9300     4.9210     6.9620 h1         1 F3Q       0.063200
     69 H16         -2.2070     5.2740     5.3550 h1         1 F3Q       0.063200
     70 H17         -7.4160     4.6050     4.3290 ha         1 F3Q       0.133000
     71 H18         -7.6130     7.0570     4.3070 ha         1 F3Q       0.132000
     72 H19         -5.7030     8.4500     5.0080 ha         1 F3Q       0.131000
     73 H20         -3.5950     7.3850     5.7280 ha         1 F3Q       0.132000
     74 H21         -3.7010     0.9730     4.5660 h1         1 F3Q       0.054700
     75 H22         -4.8630     0.5370     5.8270 h1         1 F3Q       0.054700
     76 H23         -0.7440     4.4310     6.8270 ha         1 F3Q       0.154000
     77 H25         -3.2340    -1.4270     6.1350 h1         1 F3Q       0.043200
     78 H26         -2.1110    -0.6810     4.9850 h1         1 F3Q       0.043200
     79 H27         -0.4070    -0.4870     6.7380 h1         1 F3Q       0.049450
     80 H28         -0.9470    -2.1710     6.6130 h1         1 F3Q       0.049450
     81 H29         -2.3680     0.0720     9.7570 h1         1 F3Q       0.049450
     82 H30         -1.2560     0.8540     8.6190 h1         1 F3Q       0.049450
     83 H31         -3.5530     1.5950     8.1730 h1         1 F3Q       0.043200
     84 H32         -4.0820    -0.0890     8.0090 h1         1 F3Q       0.043200
     85 H33         -4.6090    -0.2720    -0.6320 ha         1 F3Q       0.173500
     86 H34         -6.6620    -0.9110    -1.8340 ha         1 F3Q       0.140000
     87 H35         -7.6240     3.2220    -2.3880 ha         1 F3Q       0.140000
     88 H36         -5.5720     3.8620    -1.1840 ha         1 F3Q       0.173500
     89 H37         -1.7960     3.6830    -1.0570 ha         1 F3Q       0.142500
     90 H38         -1.3860     6.0460    -0.4960 ha         1 F3Q       0.136000
     91 H39         -2.9060     7.2340     1.0390 ha         1 F3Q       0.131000
     92 H40         -4.8440     6.0620     2.0120 ha         1 F3Q       0.136000
     93 H41         -5.2650     3.6990     1.4540 ha         1 F3Q       0.142500
     94 H42         -8.2140     0.6840    -3.7710 ho         1 F3Q       0.414000
     95 H24          3.5990     5.2990     6.4490 h2         1 F3Q       0.074200
@<TRIPOS>BOND
     1    19    20 1
     2    19    18 1
     3    20    16 1
     4    18    17 1
     5    16    17 ar
     6    16    34 ar
     7    17    14 ar
     8    34    15 ar
     9    14    13 ar
    10    53    45 1
    11    15    13 ar
    12    15    21 1
    13    13     7 1
    14    45    44 ar
    15    45    46 ar
    16     3     6 1
    17     3     4 1
    18    44    43 ar
    19    21    23 2
    20    21    22 1
    21     7     6 1
    22     7     8 2
    23    26    22 1
    24    26    27 1
    25     6     5 1
    26    22    24 1
    27    46    47 ar
    28    32    27 ar
    29    32    31 ar
    30     8     9 1
    31     4     2 1
    32    43    41 ar
    33    27    28 ar
    34    31    30 ar
    35    36    37 1
    36    36    35 1
    37     5     9 2
    38     5     1 1
    39    47    41 ar
    40    33    24 1
    41    33    35 1
    42     2     1 1
    43    38    37 1
    44    38    39 1
    45    24    25 1
    46     9    10 1
    47    41    12 1
    48    40    35 1
    49    40    39 1
    50    28    25 1
    51    28    29 ar
    52    30    29 ar
    53    10    12 1
    54    10    11 2
    55    12    42 1
    56    42    48 ar
    57    42    52 ar
    58    48    49 ar
    59    52    51 ar
    60    49    50 ar
    61    51    50 ar
    62     1    54 1
    63     1    55 1
    64     2    56 1
    65     2    57 1
    66     3    58 1
    67     3    59 1
    68     4    60 1
    69     4    61 1
    70     8    62 1
    71    14    63 1
    72    19    64 1
    73    24    65 1
    74    25    66 1
    75    25    67 1
    76    26    68 1
    77    26    69 1
    78    29    70 1
    79    30    71 1
    80    31    72 1
    81    32    73 1
    82    33    74 1
    83    33    75 1
    84    34    76 1
    85    36    77 1
    86    36    78 1
    87    37    79 1
    88    37    80 1
    89    39    81 1
    90    39    82 1
    91    40    83 1
    92    40    84 1
    93    43    85 1
    94    44    86 1
    95    46    87 1
    96    47    88 1
    97    48    89 1
    98    49    90 1
    99    50    91 1
   100    51    92 1
   101    52    93 1
   102    53    94 1
   103    19    95 1
@<TRIPOS>SUBSTRUCTURE
     1 F3Q         1 TEMP              0 ****  ****    0 ROOT
