@<TRIPOS>MOLECULE
F3V
   13    12     1     0     0
SMALL
bcc


@<TRIPOS>ATOM
      1 N            0.0000     0.0000     0.0000 nz         1 F3V       0.100400
      2 CA           1.4690     0.0000     0.0000 c3         1 F3V      -0.159200
      3 C            1.9710     0.0000     1.4210 c          1 F3V       0.603100
      4 O            1.1850    -0.0010     2.3380 o          1 F3V      -0.525100
      5 CM           3.4520     0.0000     1.6970 c3         1 F3V      -0.064100
      6 H1          -0.3340     0.0000    -0.9440 hn         1 F3V       0.229800
      7 H2          -0.3340     0.8170     0.4720 hn         1 F3V       0.229800
      8 H4           1.8300    -0.8850    -0.5110 hx         1 F3V       0.102700
      9 H5           1.8300     0.8850    -0.5110 hx         1 F3V       0.102700
     10 H6           3.9010    -0.8850     1.2620 hc         1 F3V       0.049700
     11 H7           3.6200     0.0010     2.7670 hc         1 F3V       0.049700
     12 H8           3.9010     0.8840     1.2610 hc         1 F3V       0.049700
     13 HN3         -0.3340    -0.7860     0.5220 hn         1 F3V       0.229800
@<TRIPOS>BOND
     1     1     2 1   
     2     1     6 1   
     3     1     7 1   
     4     1    13 1   
     5     2     3 1   
     6     2     8 1   
     7     2     9 1   
     8     3     4 2   
     9     3     5 1   
    10     5    10 1   
    11     5    11 1   
    12     5    12 1   
@<TRIPOS>SUBSTRUCTURE
     1 F3V         1 TEMP              0 ****  ****    0 ROOT
