@<TRIPOS>MOLECULE
molecule
   49    53     1     0     0
SMALL
bcc


@<TRIPOS>ATOM
      1 C4           0.0000     0.0000     0.0000 ca         1 F3W       0.509200
      2 C5           1.6340    -0.0040     3.8360 cc         1 F3W      -0.217200
      3 C6           0.4650    -0.0050     4.4960 cd         1 F3W      -0.124100
      4 N1          -0.5720    -0.0080     3.6020 na         1 F3W      -0.269100
      5 C7           3.5350     0.0020    -0.4300 cc         1 F3W       0.467400
      6 C8           4.8120     0.0040    -1.1760 ca         1 F3W      -0.086900
      7 N2           3.4190     0.0010     0.9360 na         1 F3W      -0.095300
      8 C9           4.8440    -0.4120    -2.5040 ca         1 F3W      -0.060000
      9 C10          6.0540    -0.4080    -3.2010 ca         1 F3W      -0.092800
     10 C11          7.2240     0.0150    -2.5610 ca         1 F3W      -0.102000
     11 C12          7.1820     0.4260    -1.2440 ca         1 F3W      -0.144000
     12 N3           2.3430     0.0010    -0.9740 nd         1 F3W      -0.578100
     13 C13          6.0980    -0.8460    -4.6070 cf         1 F3W      -0.038200
     14 C14          7.2680    -0.8400    -5.2770 ce         1 F3W      -0.088700
     15 C15          7.3110    -1.2660    -6.6430 cg         1 F3W       0.194500
     16 N4           7.3640    -1.6010    -7.7280 n1         1 F3W      -0.372800
     17 C16          5.9860     0.4280    -0.5510 ca         1 F3W      -0.073000
     18 C            1.4010     0.0000     0.0000 ca         1 F3W      -0.065900
     19 N           -0.6780    -0.0010     1.1250 nb         1 F3W      -0.719000
     20 C1           2.0790     0.0000     1.2310 ca         1 F3W      -0.016200
     21 C2           1.3170    -0.0020     2.4090 ca         1 F3W      -0.209100
     22 C3          -0.0850    -0.0060     2.3160 ca         1 F3W       0.458800
     23 C17          4.5210    -0.0000     1.9010 c3         1 F3W       0.071000
     24 C22          3.9540     0.0100     3.3220 c3         1 F3W      -0.419900
     25 C21          5.1050     0.0100     4.3300 c3         1 F3W       0.026100
     26 C20          5.9580    -1.2450     4.1300 c3         1 F3W      -0.332400
     27 C19          6.5240    -1.2550     2.7090 c3         1 F3W       0.026100
     28 C18          5.3740    -1.2540     1.7010 c3         1 F3W      -0.419900
     29 H1          -0.5410     0.0020    -0.9380 h4         1 F3W       0.035100
     30 H2           2.6200    -0.0010     4.2860 ha         1 F3W       0.208000
     31 H3           0.3420     0.0020     5.5720 h4         1 F3W       0.162000
     32 H4          -1.5460    -0.0090     3.8320 hn         1 F3W       0.301700
     33 H5           3.9340    -0.7380    -2.9920 ha         1 F3W       0.158000
     34 H6           8.1640     0.0200    -3.0990 ha         1 F3W       0.131000
     35 H7           8.0890     0.7530    -0.7500 ha         1 F3W       0.127000
     36 H8           5.1860    -1.1430    -5.1100 ha         1 F3W       0.144000
     37 H9           8.1740    -0.5130    -4.7830 ha         1 F3W       0.154000
     38 H10          5.9630     0.7570     0.4810 ha         1 F3W       0.141000
     39 H11          5.1360     0.8790     1.7540 h1         1 F3W       0.068700
     40 H12          4.7660    -0.1410     4.0240 hc         1 F3W       0.145200
     41 H13          3.2420    -0.8000     3.4210 hc         1 F3W       0.145200
     42 H14          5.6310     0.9540     4.2610 hc         1 F3W       0.098450
     43 H15          4.6970    -0.1000     5.3270 hc         1 F3W       0.098450
     44 H16          6.8320    -1.1790     4.7660 hc         1 F3W       0.083200
     45 H17          5.3750    -2.1130     4.4120 hc         1 F3W       0.083200
     46 H18          7.0280    -2.1990     2.5390 hc         1 F3W       0.098450
     47 H19          7.2380    -0.4460     2.6100 hc         1 F3W       0.098450
     48 H20          6.0920    -1.3220     2.5090 hc         1 F3W       0.145200
     49 H21          4.7290    -2.1240     1.7230 hc         1 F3W       0.145200
@<TRIPOS>BOND
     1    16    15 3
     2    15    14 1
     3    14    13 2
     4    10    11 ar
     5    10     9 ar
     6    11    17 ar
     7    13     9 1
     8     9     8 ar
     9    17     6 ar
    10     8     6 ar
    11     6     5 1
    12    27    28 1
    13    27    26 1
    14    28    23 1
    15     5     7 1
    16     5    12 2
    17    23     7 1
    18    23    24 1
    19    26    25 1
    20     7    20 1
    21    12    18 1
    22    25    24 1
    23    20    18 ar
    24    20    21 ar
    25    18     1 ar
    26    21     2 1
    27    21    22 ar
    28     1    19 ar
    29     2     3 2
    30    22    19 ar
    31    22     4 1
    32     3     4 1
    33     1    29 1
    34     2    30 1
    35     3    31 1
    36     4    32 1
    37     8    33 1
    38    10    34 1
    39    11    35 1
    40    13    36 1
    41    14    37 1
    42    17    38 1
    43    23    39 1
    44    24    40 1
    45    24    41 1
    46    25    42 1
    47    25    43 1
    48    26    44 1
    49    26    45 1
    50    27    46 1
    51    27    47 1
    52    28    48 1
    53    28    49 1
@<TRIPOS>SUBSTRUCTURE
     1 F3W         1 TEMP              0 ****  ****    0 ROOT
