@<TRIPOS>MOLECULE
F3W
   49    56     1     0     0
SMALL
bcc


@<TRIPOS>ATOM
      1 C4           0.0000     0.0000     0.0000 c2         1 F3W       0.013000
      2 C5           1.6340    -0.0040     3.8360 c2         1 F3W      -0.387000
      3 C6           0.4650    -0.0050     4.4960 c2         1 F3W      -0.263000
      4 N1          -0.5720    -0.0080     3.6020 na         1 F3W       0.412000
      5 C7           3.5350     0.0020    -0.4300 c2         1 F3W      -0.177000
      6 C8           4.8120     0.0040    -1.1760 ca         1 F3W       0.014000
      7 N2           3.4190     0.0010     0.9360 na         1 F3W       0.325000
      8 C9           4.8440    -0.4120    -2.5040 ca         1 F3W      -0.033000
      9 C10          6.0540    -0.4080    -3.2010 ca         1 F3W      -0.075000
     10 C11          7.2240     0.0150    -2.5610 ca         1 F3W      -0.079000
     11 C12          7.1820     0.4260    -1.2440 ca         1 F3W      -0.101000
     12 N3           2.3430     0.0010    -0.9740 n2         1 F3W      -0.041000
     13 C13          6.0980    -0.8460    -4.6070 c2         1 F3W      -0.025000
     14 C14          7.2680    -0.8400    -5.2770 c2         1 F3W      -0.185000
     15 C15          7.3110    -1.2660    -6.6430 c2         1 F3W       0.076000
     16 N4           7.3290    -1.5940    -7.7310 n1         1 F3W      -0.092000
     17 C16          5.9860     0.4280    -0.5510 ca         1 F3W      -0.143000
     18 C            1.4010     0.0000     0.0000 c2         1 F3W      -0.160000
     19 N           -0.6780    -0.0010     1.1250 n2         1 F3W      -0.057000
     20 C1           2.0790     0.0000     1.2310 c2         1 F3W      -0.141000
     21 C2           1.3170    -0.0020     2.4090 c2         1 F3W      -0.116000
     22 C3          -0.0850    -0.0060     2.3160 c2         1 F3W      -0.155000
     23 C17          4.5210    -0.0000     1.9010 c3         1 F3W      -0.038000
     24 C22          3.9540     0.0100     3.3220 c3         1 F3W      -0.283000
     25 C21          5.1050     0.0100     4.3300 c3         1 F3W      -0.511000
     26 C20          5.9580    -1.2450     4.1300 DU         1 F3W      -0.423000
     27 C19          6.5240    -1.2550     2.7090 c3         1 F3W       0.088000
     28 C18          5.3740    -1.2540     1.7010 c3         1 F3W       0.117000
     29 H1          -0.5240     0.4790    -0.8180 h4         1 F3W       0.124000
     30 H2           2.6900    -0.0060     4.0770 DU         1 F3W       0.269000
     31 H3           0.7090    -0.1750     5.5380 h4         1 F3W       0.166000
     32 H4          -1.4540     0.0170     4.0740 hn         1 F3W       0.066000
     33 H5           4.1330    -1.2070    -2.6920 ha         1 F3W       0.125000
     34 H6           8.0210    -0.3410    -3.2020 ha         1 F3W       0.143000
     35 H7           8.1290     0.5340    -0.7280 ha         1 F3W       0.112000
     36 H8           5.7730    -1.8650    -4.7720 ha         1 F3W       0.075000
     37 H9           7.2380    -1.6020    -6.0470 DU         1 F3W       0.112000
     38 H10          6.2980     0.9830     0.3260 ha         1 F3W       0.143000
     39 H11          5.1360     0.8790     1.7540 h1         1 F3W       0.115000
     40 H12          3.6480     1.0460     3.2380 hc         1 F3W       0.078000
     41 H13          3.1510    -0.4050     3.9190 DU         1 F3W       0.243000
     42 H14          4.7910     0.4130     5.2850 hc         1 F3W       0.141000
     43 H15          5.5080    -0.9630     4.5850 DU         1 F3W       0.233000
     44 H16          6.3660    -1.2360     3.1260 ha         1 F3W       0.093500
     45 H17          6.4510    -1.2790     5.0940 ha         1 F3W       0.093500
     46 H18          5.6350    -1.3630     2.0990 hc         1 F3W      -0.021500
     47 H19          7.0950    -2.1370     2.9720 hc         1 F3W      -0.021500
     48 H20          5.1260    -2.3080     1.7490 hc         1 F3W       0.076000
     49 H21          5.7450    -0.8490     0.7680 hc         1 F3W       0.076000
@<TRIPOS>BOND
     1     1    18 1   
     2     1    19 1   
     3     1    29 1   
     4     2     3 1   
     5     2    21 1   
     6     2    30 1   
     7     3     4 1   
     8     3    31 1   
     9     4    22 1   
    10     4    32 1   
    11     5     6 1   
    12     5     7 1   
    13     5    12 1   
    14     6     8 1   
    15     6    17 1   
    16     7    20 1   
    17     7    23 1   
    18     8     9 1   
    19     8    33 1   
    20     9    10 1   
    21     9    13 1   
    22    10    11 1   
    23    10    34 1   
    24    11    17 1   
    25    11    35 1   
    26    12    18 1   
    27    13    14 1   
    28    13    36 1   
    29    14    15 1   
    30    14    37 1   
    31    15    16 1   
    32    15    37 1   
    33    17    38 1   
    34    18    20 1   
    35    19    22 1   
    36    20    21 1   
    37    21    22 1   
    38    23    24 1   
    39    23    28 1   
    40    23    39 1   
    41    24    25 1   
    42    24    40 1   
    43    24    41 1   
    44    25    26 1   
    45    25    42 1   
    46    25    43 1   
    47    26    27 1   
    48    26    43 1   
    49    26    44 1   
    50    26    45 1   
    51    27    28 1   
    52    27    46 1   
    53    27    47 1   
    54    28    48 1   
    55    28    49 1   
    56    30    41 1   
@<TRIPOS>SUBSTRUCTURE
     1 F3W         1 TEMP              0 ****  ****    0 ROOT
