@<TRIPOS>MOLECULE
F3Z
   77    83     1     0     0
SMALL
bcc


@<TRIPOS>ATOM
      1 O1           0.0000     0.0000     0.0000 o          1 F3Z      -0.631100
      2 C20          1.2130     0.0000     0.0000 c          1 F3Z       0.570100
      3 N5           1.8870     0.0000     1.1680 ns         1 F3Z      -0.029100
      4 C21          1.1890     0.0960     2.3790 ca         1 F3Z      -0.140400
      5 C26         -0.0450    -0.5070     2.5120 ca         1 F3Z      -0.014000
      6 C25         -0.7340    -0.4070     3.7220 ca         1 F3Z      -0.228900
      7 C27         -2.0270    -0.9070     4.2020 cc         1 F3Z       0.449500
      8 C28         -2.9940    -1.7190     3.4270 ca         1 F3Z      -0.065900
      9 C32         -3.7610    -2.7090     4.0480 ca         1 F3Z      -0.205300
     10 C31         -4.6490    -3.4430     3.2890 ca         1 F3Z       0.398700
     11 N6          -4.7780    -3.2190     1.9940 nb         1 F3Z      -0.585000
     12 C30         -4.0740    -2.2950     1.3690 ca         1 F3Z       0.398700
     13 C29         -3.1670    -1.5130     2.0540 ca         1 F3Z      -0.205300
     14 N7          -2.1710    -0.5050     5.4410 nd         1 F3Z      -0.624100
     15 N8          -1.0550     0.2390     5.8360 na         1 F3Z       0.417900
     16 C24         -0.1650     0.3080     4.7920 ca         1 F3Z      -0.194200
     17 C23          1.0820     0.9080     4.6330 ca         1 F3Z      -0.103000
     18 C22          1.7480     0.7980     3.4470 ca         1 F3Z      -0.078000
     19 C19          1.9670    -0.0050    -1.3050 c3         1 F3Z      -0.133700
     20 C            2.7790     1.3000    -1.4610 c3         1 F3Z      -0.019400
     21 C18          0.9830    -0.0110    -2.4900 c3         1 F3Z       0.141800
     22 N            1.2120     1.2380    -3.2490 n3         1 F3Z      -0.500600
     23 C1           2.6150     1.6340    -2.9650 c3         1 F3Z       0.141800
     24 C2           1.0050     1.0250    -4.6880 c3         1 F3Z       0.080800
     25 C3           1.0040     2.3530    -5.3970 c          1 F3Z       0.587100
     26 O            1.1590     3.3780    -4.7670 o          1 F3Z      -0.626100
     27 N1           0.8300     2.4050    -6.7330 n          1 F3Z      -0.168800
     28 C7           0.8250     3.6910    -7.4450 c3         1 F3Z       0.050000
     29 C6           1.8080     3.6030    -8.6170 c3         1 F3Z       0.117300
     30 N2           1.4760     2.4350    -9.4440 nh         1 F3Z      -0.355000
     31 C5           1.6310     1.1860    -8.6860 c3         1 F3Z       0.117300
     32 C4           0.6470     1.1740    -7.5170 c3         1 F3Z       0.050000
     33 C8           2.2430     2.4110   -10.6070 ca         1 F3Z       0.035600
     34 C13          3.1750     3.4160   -10.8440 ca         1 F3Z      -0.165500
     35 C12          3.9340     3.3960   -11.9940 ca         1 F3Z      -0.030500
     36 C11          3.7680     2.3660   -12.9200 cp         1 F3Z      -0.193500
     37 C10          2.8320     1.3590   -12.6800 ca         1 F3Z      -0.030500
     38 C9           2.0790     1.3810   -11.5270 ca         1 F3Z      -0.165500
     39 C14          4.5830     2.3410   -14.1570 cp         1 F3Z       0.672500
     40 N4           4.4110     1.3540   -15.0270 nb         1 F3Z      -0.623000
     41 C17          5.1220     1.3030   -16.1390 ca         1 F3Z       0.446200
     42 C16          6.0560     2.2970   -16.3930 ca         1 F3Z      -0.358600
     43 C15          6.2100     3.3140   -15.4620 ca         1 F3Z       0.446200
     44 N3           5.4630     3.3100   -14.3720 nb         1 F3Z      -0.623000
     45 H1           2.8820    -0.1090     1.1710 hn         1 F3Z       0.166500
     46 H2          -0.4150    -1.1620     1.7320 ha         1 F3Z       0.141000
     47 H3          -3.6590    -2.8980     5.1100 ha         1 F3Z       0.130000
     48 H4          -5.2480    -4.2120     3.7610 h4         1 F3Z      -0.019400
     49 H5          -4.2140    -2.1450     0.3060 h4         1 F3Z      -0.019400
     50 H6          -2.5920    -0.7560     1.5350 ha         1 F3Z       0.130000
     51 H57         -0.9250     0.6550     6.7370 hn         1 F3Z       0.153700
     52 H8           1.5280     1.4560     5.4550 ha         1 F3Z       0.105000
     53 H9           2.7210     1.2610     3.3330 ha         1 F3Z       0.104000
     54 H10          2.6250    -0.8640    -1.3610 hc         1 F3Z       0.035700
     55 H12          3.8220     1.1320    -1.2190 hc         1 F3Z       0.025200
     56 H11          2.3580     2.0870    -0.8470 hc         1 F3Z       0.025200
     57 H14         -0.0350    -0.0380    -2.1230 h1         1 F3Z       0.032700
     58 H13          1.1760    -0.8680    -3.1240 h1         1 F3Z       0.032700
     59 H16          3.3040     1.0490    -3.5620 h1         1 F3Z       0.025200
     60 H17          2.7540     2.6940    -3.1370 h1         1 F3Z       0.025200
     61 H19          1.8040     0.4070    -5.0800 h1         1 F3Z       0.024200
     62 H18          0.0550     0.5300    -4.8460 h1         1 F3Z       0.024200
     63 H21         -0.1700     3.8950    -7.8200 h1         1 F3Z       0.036200
     64 H20          1.1350     4.4810    -6.7710 h1         1 F3Z       0.036200
     65 H23          1.7340     4.5020    -9.2180 h1         1 F3Z       0.027450
     66 H22          2.8160     3.4990    -8.2350 h1         1 F3Z       0.027450
     67 H25          2.6430     1.1190    -8.3050 h1         1 F3Z       0.027450
     68 H24          1.4280     0.3430    -9.3360 h1         1 F3Z       0.027450
     69 H27          0.8400     0.3130    -6.8890 h1         1 F3Z       0.036200
     70 H26         -0.3660     1.1340    -7.8970 h1         1 F3Z       0.036200
     71 H28          3.3030     4.2150   -10.1250 ha         1 F3Z       0.120500
     72 H29          4.6600     4.1780   -12.1780 ha         1 F3Z       0.123000
     73 H30          2.7030     0.5570   -13.3970 ha         1 F3Z       0.123000
     74 H31          1.3530     0.5990   -11.3400 ha         1 F3Z       0.120500
     75 H32          4.9770     0.4940   -16.8460 h4         1 F3Z      -0.015900
     76 H33          6.6540     2.2780   -17.2960 ha         1 F3Z       0.123000
     77 H34          6.9290     4.1070   -15.6310 h4         1 F3Z      -0.015900
@<TRIPOS>BOND
     1     1     2 2   
     2     2     3 1   
     3     2    19 1   
     4     3     4 1   
     5     3    45 1   
     6     4     5 ar  
     7     4    18 ar  
     8     5     6 ar  
     9     5    46 1   
    10     6     7 1   
    11     6    16 ar  
    12     7     8 1   
    13     7    14 2   
    14     8     9 ar  
    15     8    13 ar  
    16     9    10 ar  
    17     9    47 1   
    18    10    11 ar  
    19    10    48 1   
    20    11    12 ar  
    21    12    13 ar  
    22    12    49 1   
    23    13    50 1   
    24    14    15 1   
    25    15    16 1   
    26    15    51 1   
    27    16    17 ar  
    28    17    18 ar  
    29    17    52 1   
    30    18    53 1   
    31    19    20 1   
    32    19    21 1   
    33    19    54 1   
    34    20    23 1   
    35    20    55 1   
    36    20    56 1   
    37    21    22 1   
    38    21    57 1   
    39    21    58 1   
    40    22    23 1   
    41    22    24 1   
    42    23    59 1   
    43    23    60 1   
    44    24    25 1   
    45    24    61 1   
    46    24    62 1   
    47    25    26 2   
    48    25    27 1   
    49    27    28 1   
    50    27    32 1   
    51    28    29 1   
    52    28    63 1   
    53    28    64 1   
    54    29    30 1   
    55    29    65 1   
    56    29    66 1   
    57    30    31 1   
    58    30    33 1   
    59    31    32 1   
    60    31    67 1   
    61    31    68 1   
    62    32    69 1   
    63    32    70 1   
    64    33    34 ar  
    65    33    38 ar  
    66    34    35 ar  
    67    34    71 1   
    68    35    36 ar  
    69    35    72 1   
    70    36    37 ar  
    71    36    39 1   
    72    37    38 ar  
    73    37    73 1   
    74    38    74 1   
    75    39    40 ar  
    76    39    44 ar  
    77    40    41 ar  
    78    41    42 ar  
    79    41    75 1   
    80    42    43 ar  
    81    42    76 1   
    82    43    44 ar  
    83    43    77 1   
@<TRIPOS>SUBSTRUCTURE
     1 F3Z         1 TEMP              0 ****  ****    0 ROOT
