@<TRIPOS>MOLECULE
F40
   27    29     1     0     0
SMALL
bcc


@<TRIPOS>ATOM
      1 O            0.0000     0.0000     0.0000 o          1 F40      -0.665500
      2 C            1.2170     0.0000     0.0000 c          1 F40       0.621100
      3 N            1.9200     0.0000     1.1570 ns         1 F40      -0.018400
      4 C1           3.2880    -0.0000     1.1370 cc         1 F40       0.360500
      5 C8           4.0110    -0.0010     2.4260 ca         1 F40      -0.159900
      6 C9           5.4060    -0.0010     2.4460 ca         1 F40      -0.069000
      7 C10          6.0760     0.0000     3.6530 ca         1 F40      -0.103500
      8 C11          5.3660     0.0000     4.8400 ca         1 F40      -0.080000
      9 C12          3.9830     0.0010     4.8270 ca         1 F40      -0.103500
     10 C13          3.3020     0.0060     3.6280 ca         1 F40      -0.069000
     11 N1           3.9850    -0.0010     0.0300 nd         1 F40      -0.537100
     12 C2           3.3920    -0.0010    -1.1800 ca         1 F40       0.156400
     13 C3           1.9800    -0.0070    -1.2570 ca         1 F40      -0.217600
     14 C7           4.1400    -0.0020    -2.3610 ca         1 F40      -0.099000
     15 C6           3.4970    -0.0030    -3.5760 ca         1 F40      -0.063000
     16 C5           2.1100    -0.0020    -3.6480 ca         1 F40      -0.130000
     17 C4           1.3490    -0.0130    -2.4990 ca         1 F40      -0.015000
     18 H            1.4350     0.0000     2.0320 hn         1 F40       0.190500
     19 H9           5.9620    -0.0010     1.5170 ha         1 F40       0.116000
     20 H13          2.2180     0.0070     3.6190 ha         1 F40       0.116000
     21 H10          7.1590    -0.0000     3.6700 ha         1 F40       0.107500
     22 H11          5.8970    -0.0010     5.7850 ha         1 F40       0.104000
     23 H12          3.4330     0.0040     5.7610 ha         1 F40       0.107500
     24 H7           5.2230    -0.0030    -2.3180 ha         1 F40       0.118000
     25 H4           0.2680    -0.0120    -2.5610 ha         1 F40       0.124000
     26 H6           4.0790     0.0060    -4.4900 ha         1 F40       0.102000
     27 H5           1.6220    -0.0030    -4.6150 ha         1 F40       0.108000
@<TRIPOS>BOND
     1     1     2 2   
     2     2     3 1   
     3     2    13 1   
     4     3     4 1   
     5     3    18 1   
     6     4     5 1   
     7     4    11 2   
     8     5     6 ar  
     9     5    10 ar  
    10     6     7 ar  
    11     6    19 1   
    12     7     8 ar  
    13     7    21 1   
    14     8     9 ar  
    15     8    22 1   
    16     9    10 ar  
    17     9    23 1   
    18    10    20 1   
    19    11    12 1   
    20    12    13 ar  
    21    12    14 ar  
    22    13    17 ar  
    23    14    15 ar  
    24    14    24 1   
    25    15    16 ar  
    26    15    26 1   
    27    16    17 ar  
    28    16    27 1   
    29    17    25 1   
@<TRIPOS>SUBSTRUCTURE
     1 F40         1 TEMP              0 ****  ****    0 ROOT
