@<TRIPOS>MOLECULE
F41
   37    39     1     0     0
SMALL
bcc


@<TRIPOS>ATOM
      1 C1           0.0000     0.0000     0.0000 c3         1 F41      -0.029400
      2 C2           1.5310     0.0000     0.0000 c3         1 F41      -0.020400
      3 C3           2.0350     0.0000     1.4450 c3         1 F41       0.140800
      4 N4           1.5280    -1.1890     2.1420 n3         1 F41      -0.506600
      5 C5           0.0600    -1.1870     2.1950 c3         1 F41       0.140800
      6 C6          -0.5030    -1.2220     0.7740 c3         1 F41      -0.020400
      7 C7           2.1040    -1.2950     3.4900 c3         1 F41       0.083800
      8 C8           1.7590    -2.6390     4.0790 c          1 F41       0.555100
      9 O9           1.0990    -3.4290     3.4400 o          1 F41      -0.609100
     10 N10          2.1840    -2.9610     5.3160 ns         1 F41      -0.039100
     11 C11          1.7830    -4.1690     5.9030 ca         1 F41      -0.089400
     12 C12          1.6160    -5.3000     5.1150 ca         1 F41      -0.089000
     13 C13          1.2210    -6.4940     5.6950 ca         1 F41       0.076100
     14 C14          0.9910    -6.5560     7.0690 ca         1 F41       0.042100
     15 C15          1.1600    -5.4250     7.8500 ca         1 F41      -0.072000
     16 C16          1.5590    -4.2360     7.2710 ca         1 F41      -0.134000
     17 O17          0.9880    -7.7260     5.1580 os         1 F41      -0.309900
     18 C18          1.0130    -8.6420     6.2690 c3         1 F41       0.430200
     19 O19          0.6160    -7.8290     7.3890 os         1 F41      -0.315900
     20 H1          -0.3610     0.9030     0.4770 hc         1 F41       0.011200
     21 H1A         -0.3610    -0.0450    -1.0200 hc         1 F41       0.011200
     22 H2           1.8920    -0.8860    -0.5080 hc         1 F41       0.020700
     23 H2A          1.8920     0.8860    -0.5080 hc         1 F41       0.020700
     24 H3           1.6810     0.8910     1.9500 h1         1 F41       0.013700
     25 H3A          3.1190    -0.0160     1.4480 h1         1 F41       0.013700
     26 H5          -0.2800    -0.2880     2.6950 h1         1 F41       0.013700
     27 H5A         -0.2810    -2.0590     2.7390 h1         1 F41       0.013700
     28 H6          -0.1710    -2.1250     0.2770 hc         1 F41       0.020700
     29 H6A         -1.5860    -1.2020     0.8140 hc         1 F41       0.020700
     30 H7           1.6990    -0.5110     4.1180 h1         1 F41       0.019700
     31 H7A          3.1800    -1.1920     3.4320 h1         1 F41       0.019700
     32 HN10         2.8080    -2.3500     5.8060 hn         1 F41       0.166500
     33 H12          1.8540    -5.2640     4.0590 ha         1 F41       0.153000
     34 H15          0.9860    -5.4740     8.9180 ha         1 F41       0.112000
     35 H16          1.6980    -3.3550     7.8860 ha         1 F41       0.109000
     36 H18          0.2870    -9.4310     6.1110 h2         1 F41       0.013700
     37 H18A         2.0200    -9.0100     6.4200 h2         1 F41       0.013700
@<TRIPOS>BOND
     1     1     2 1   
     2     1     6 1   
     3     1    20 1   
     4     1    21 1   
     5     2     3 1   
     6     2    22 1   
     7     2    23 1   
     8     3     4 1   
     9     3    24 1   
    10     3    25 1   
    11     4     5 1   
    12     4     7 1   
    13     5     6 1   
    14     5    26 1   
    15     5    27 1   
    16     6    28 1   
    17     6    29 1   
    18     7     8 1   
    19     7    30 1   
    20     7    31 1   
    21     8     9 2   
    22     8    10 1   
    23    10    11 1   
    24    10    32 1   
    25    11    12 ar  
    26    11    16 ar  
    27    12    13 ar  
    28    12    33 1   
    29    13    14 ar  
    30    13    17 1   
    31    14    15 ar  
    32    14    19 1   
    33    15    16 ar  
    34    15    34 1   
    35    16    35 1   
    36    17    18 1   
    37    18    19 1   
    38    18    36 1   
    39    18    37 1   
@<TRIPOS>SUBSTRUCTURE
     1 F41         1 TEMP              0 ****  ****    0 ROOT
