@<TRIPOS>MOLECULE
molecule
   37    39     1     0     0
SMALL
bcc


@<TRIPOS>ATOM
      1 C1           0.0000     0.0000     0.0000 c3         1 F41      -0.084400
      2 C2           1.5310     0.0000     0.0000 c3         1 F41      -0.074900
      3 C3           2.0350     0.0000     1.4450 c3         1 F41       0.160300
      4 N4           1.5280    -1.1890     2.1420 n3         1 F41      -0.706600
      5 C5           0.0600    -1.1870     2.1950 c3         1 F41       0.160300
      6 C6          -0.5030    -1.2220     0.7740 c3         1 F41      -0.074900
      7 C7           2.1040    -1.2950     3.4900 c3         1 F41       0.090800
      8 C8           1.7590    -2.6390     4.0790 c          1 F41       0.655100
      9 O9           1.0990    -3.4290     3.4400 o          1 F41      -0.568100
     10 N10          2.1840    -2.9610     5.3160 ns         1 F41      -0.482100
     11 C11          1.7830    -4.1690     5.9030 ca         1 F41       0.059600
     12 C12          1.6160    -5.3000     5.1150 ca         1 F41      -0.112000
     13 C13          1.2210    -6.4940     5.6950 ca         1 F41       0.066100
     14 C14          0.9910    -6.5560     7.0690 ca         1 F41       0.031100
     15 C15          1.1600    -5.4250     7.8500 ca         1 F41      -0.098000
     16 C16          1.5590    -4.2360     7.2710 ca         1 F41      -0.162000
     17 O17          0.9880    -7.7260     5.1580 os         1 F41      -0.321900
     18 C18          1.0130    -8.6420     6.2690 c3         1 F41       0.331200
     19 O19          0.6160    -7.8290     7.3890 os         1 F41      -0.328900
     20 H1          -0.3610     0.9030     0.4770 hc         1 F41       0.039700
     21 H1A         -0.3610    -0.0450    -1.0200 hc         1 F41       0.039700
     22 H2           1.8920    -0.8860    -0.5080 hc         1 F41       0.050950
     23 H2A          1.8920     0.8860    -0.5080 hc         1 F41       0.050950
     24 H3           1.6810     0.8910     1.9500 h1         1 F41       0.037450
     25 H3A          3.1190    -0.0160     1.4480 h1         1 F41       0.037450
     26 H5          -0.2800    -0.2880     2.6950 h1         1 F41       0.037450
     27 H5A         -0.2810    -2.0590     2.7390 h1         1 F41       0.037450
     28 H6          -0.1710    -2.1250     0.2770 hc         1 F41       0.050950
     29 H6A         -1.5860    -1.2020     0.8140 hc         1 F41       0.050950
     30 H7           1.6990    -0.5110     4.1180 h1         1 F41       0.051200
     31 H7A          3.1800    -1.1920     3.4320 h1         1 F41       0.051200
     32 HN10         2.8080    -2.3500     5.8060 hn         1 F41       0.323500
     33 H12          1.8540    -5.2640     4.0590 ha         1 F41       0.178000
     34 H15          0.9860    -5.4740     8.9180 ha         1 F41       0.144000
     35 H16          1.6980    -3.3550     7.8860 ha         1 F41       0.137000
     36 H18          0.2870    -9.4310     6.1110 h2         1 F41       0.070700
     37 H18A         2.0200    -9.0100     6.4200 h2         1 F41       0.070700
@<TRIPOS>BOND
     1     1     2 1
     2     1     6 1
     3     2     3 1
     4     3     4 1
     5     4     5 1
     6     4     7 1
     7     5     6 1
     8     7     8 1
     9     8     9 2
    10     8    10 1
    11    10    11 1
    12    11    12 ar
    13    11    16 ar
    14    12    13 ar
    15    13    14 ar
    16    13    17 1
    17    14    15 ar
    18    14    19 1
    19    15    16 ar
    20    17    18 1
    21    18    19 1
    22     1    20 1
    23     1    21 1
    24     2    22 1
    25     2    23 1
    26     3    24 1
    27     3    25 1
    28     5    26 1
    29     5    27 1
    30     6    28 1
    31     6    29 1
    32     7    30 1
    33     7    31 1
    34    10    32 1
    35    12    33 1
    36    15    34 1
    37    16    35 1
    38    18    36 1
    39    18    37 1
@<TRIPOS>SUBSTRUCTURE
     1 F41         1 TEMP              0 ****  ****    0 ROOT
