@<TRIPOS>MOLECULE
molecule
   29    30     1     0     0
SMALL
bcc


@<TRIPOS>ATOM
      1 C1           0.0000     0.0000     0.0000 ca         1 F44      -0.249300
      2 C3           2.0460     0.0000     1.2190 ca         1 F44      -0.261300
      3 C13         -5.5850    -4.4460     4.3630 ca         1 F44      -0.261300
      4 C15         -5.5780    -2.1020     3.9430 ca         1 F44      -0.249300
      5 C14         -6.0280    -3.1760     4.6960 ca         1 F44      -0.091000
      6 C2           1.3870     0.0000     0.0000 ca         1 F44      -0.091000
      7 C8          -2.6840    -1.1720     2.0560 c3         1 F44      -0.070400
      8 C9          -4.2140    -1.1720     2.0680 c3         1 F44      -0.127700
      9 C10         -4.7090    -2.3310     2.8930 ca         1 F44       0.430600
     10 C12         -4.7120    -4.5980     3.3020 ca         1 F44       0.424200
     11 C6          -0.6730     0.0060     1.2070 ca         1 F44       0.430600
     12 C4           1.3050     0.0110     2.3860 ca         1 F44       0.424200
     13 N11         -4.3050    -3.5550     2.6080 nb         1 F44      -0.692000
     14 N5          -0.0120     0.0110     2.3480 nb         1 F44      -0.692000
     15 H1          -0.5480     0.0000    -0.9340 ha         1 F44       0.138000
     16 H2           3.1290    -0.0000     1.2570 ha         1 F44       0.136000
     17 H4          -5.9040    -1.0950     4.1740 ha         1 F44       0.138000
     18 H5          -6.7110    -3.0260     5.5230 ha         1 F44       0.136000
     19 H6           1.9410    -0.0060    -0.9310 ha         1 F44       0.136000
     20 H7          -2.3260    -2.0990     1.6270 hc         1 F44       0.064700
     21 H8          -2.3150    -1.0770     3.0710 hc         1 F44       0.064700
     22 H11         -4.5720    -0.2440     2.4980 hc         1 F44       0.052200
     23 H12         -4.5830    -1.2650     1.0540 hc         1 F44       0.052200
     24 H13         -4.3590    -5.5880     3.0370 h4         1 F44       0.021600
     25 H14          1.8130     0.0130     3.3430 h4         1 F44       0.021600
     26 C7          -2.1810     0.0060     1.2190 c3         1 F44      -0.127700
     27 H3          -5.9160    -5.3080     4.9290 ha         1 F44       0.136000
     28 H9          -2.5380     0.9340     1.6490 hc         1 F44       0.052200
     29 H10         -2.5500    -0.0880     0.2050 hc         1 F44       0.052200
@<TRIPOS>BOND
     1     7     8 1
     2     7    26 1
     3     8     9 1
     4    26    11 1
     5     4     9 ar
     6     4     5 ar
     7     9    13 ar
     8    11     1 ar
     9    11    14 ar
    10     1     6 ar
    11    13    10 ar
    12     5     3 ar
    13    14    12 ar
    14     6     2 ar
    15    10     3 ar
    16    12     2 ar
    17     1    15 1
    18     2    16 1
    19     3    27 1
    20     4    17 1
    21     5    18 1
    22     6    19 1
    23     7    20 1
    24     7    21 1
    25    26    28 1
    26    26    29 1
    27     8    22 1
    28     8    23 1
    29    10    24 1
    30    12    25 1
@<TRIPOS>SUBSTRUCTURE
     1 F44         1 TEMP              0 ****  ****    0 ROOT
