@<TRIPOS>MOLECULE
molecule
   36    38     1     0     0
SMALL
bcc


@<TRIPOS>ATOM
      1 F            0.0000     0.0000     0.0000 f          1 F45      -0.127900
      2 C13          1.3510     0.0000     0.0000 ca         1 F45       0.146900
      3 C12          2.0410     0.0000     1.2030 ca         1 F45      -0.185000
      4 C11          3.4190    -0.0000     1.2100 ca         1 F45      -0.068000
      5 C14          2.0440    -0.0060    -1.2060 ca         1 F45       0.045100
      6 O2           1.3620    -0.0060    -2.3820 oh         1 F45      -0.505100
      7 C15          3.4270    -0.0130    -1.2080 ca         1 F45      -0.078000
      8 C10          4.1240    -0.0010     0.0020 ca         1 F45      -0.177600
      9 C9           5.6000    -0.0070     0.0070 c          1 F45       0.499200
     10 O1           6.2100    -0.2250    -1.0210 o          1 F45      -0.520100
     11 C8           6.3370     0.2520     1.2650 ca         1 F45       0.359800
     12 C7           7.7240     0.1170     1.2910 ca         1 F45      -0.194300
     13 C6           8.4070     0.3620     2.4750 ca         1 F45      -0.098000
     14 C5           7.6830     0.7330     3.5920 ca         1 F45      -0.218300
     15 N            5.6720     0.6140     2.3540 nb         1 F45      -0.676000
     16 C4           6.2930     0.8500     3.4990 cp         1 F45       0.476800
     17 C3           5.5070     1.2470     4.6920 cp         1 F45      -0.149500
     18 C2           6.1610     1.6030     5.8700 ca         1 F45      -0.107000
     19 C1           5.4290     1.9720     6.9810 ca         1 F45      -0.157000
     20 C16          4.1140     1.2700     4.6350 ca         1 F45      -0.108000
     21 C17          3.3860     1.6410     5.7500 ca         1 F45       0.085100
     22 O3           2.0270     1.6650     5.6970 oh         1 F45      -0.512100
     23 C            4.0440     1.9900     6.9270 ca         1 F45       0.098100
     24 O            3.3270     2.3560     8.0220 oh         1 F45      -0.512100
     25 H1           1.4960     0.0000     2.1390 ha         1 F45       0.153000
     26 H2           3.9560     0.0040     2.1510 ha         1 F45       0.191000
     27 H3           1.3420    -0.8810    -2.7340 ho         1 F45       0.421000
     28 H4           3.9680    -0.0150    -2.1470 ha         1 F45       0.163000
     29 H5           8.2640    -0.1750     0.3980 ha         1 F45       0.164000
     30 H6           9.4850     0.2640     2.5210 ha         1 F45       0.147000
     31 H7           8.1870     0.9280     4.5310 ha         1 F45       0.145000
     32 H8           7.2430     1.5890     5.9150 ha         1 F45       0.137000
     33 H9           5.9380     2.2460     7.8970 ha         1 F45       0.145000
     34 H10          3.6070     1.0590     3.7020 ha         1 F45       0.162000
     35 H11          1.7380     2.5190     5.4210 ho         1 F45       0.427000
     36 H12          3.3480     1.6600     8.6580 ho         1 F45       0.427000
@<TRIPOS>BOND
     1    10     9 2
     2    22    21 1
     3    21    20 ar
     4    21    23 ar
     5    20    17 ar
     6     9    11 1
     7     9     8 1
     8    12    11 ar
     9    12    13 ar
    10    11    15 ar
    11    13    14 ar
    12    15    16 ar
    13    14    16 ar
    14    24    23 1
    15    16    17 1
    16    23    19 ar
    17    17    18 ar
    18     7     8 ar
    19     7     5 ar
    20    19    18 ar
    21     8     4 ar
    22     6     5 1
    23     5     2 ar
    24     4     3 ar
    25     2     3 ar
    26     2     1 1
    27     3    25 1
    28     4    26 1
    29     6    27 1
    30     7    28 1
    31    12    29 1
    32    13    30 1
    33    14    31 1
    34    18    32 1
    35    19    33 1
    36    20    34 1
    37    22    35 1
    38    24    36 1
@<TRIPOS>SUBSTRUCTURE
     1 F45         1 TEMP              0 ****  ****    0 ROOT
