@<TRIPOS>MOLECULE
molecule
   72    77     1     0     0
SMALL
bcc


@<TRIPOS>ATOM
      1 OAA          0.0000     0.0000     0.0000 o          1 F46      -0.597100
      2 CAD          3.3360    -0.0000     3.6800 ca         1 F46      -0.101000
      3 CAE          1.9530     0.0000     3.6830 ca         1 F46      -0.137500
      4 CAF          4.0330    -0.0010     2.4840 ca         1 F46      -0.137500
      5 CAG          1.2580     0.0010     2.4910 ca         1 F46      -0.083000
      6 CAH          3.3490    -0.0000     1.2850 ca         1 F46      -0.083000
      7 CAI         -0.1790    -0.2740    -4.7800 ca         1 F46      -0.163000
      8 CAJ         -2.9290    -0.9530    -4.8660 ca         1 F46      -0.199000
      9 CAK          1.0610    -0.8680    -4.6470 ca         1 F46      -0.124000
     10 CAL        -10.0520    -1.2590    -6.2520 ca         1 F46      -0.201000
     11 CAM         -9.3010    -0.1270    -6.0360 ca         1 F46      -0.102000
     12 CAN         -3.8720    -1.5480    -5.6580 ca         1 F46      -0.036000
     13 CAO         -0.0510     0.5080    -2.5090 ca         1 F46      -0.155000
     14 CAP         -3.9720     1.2050    -5.2010 ca         1 F46      -0.214000
     15 CAQ         -8.0970    -2.4000    -7.0190 ca         1 F46      -0.117000
     16 CAR        -11.3580    -8.4680    -5.4220 c3         1 F46       0.140400
     17 CAS        -11.3760    -6.8680    -3.6410 c3         1 F46       0.140400
     18 CAT        -11.5810    -3.4600    -6.6570 c3         1 F46       0.143400
     19 CAU        -12.0150    -7.4510    -6.3590 c3         1 F46       0.116300
     20 CAV        -12.0330    -5.8340    -4.5590 c3         1 F46       0.116300
     21 CAW        -12.2380    -4.8080    -6.9610 c3         1 F46       0.159800
     22 CAX         -7.2510     1.2120    -6.0110 c3         1 F46       0.210700
     23 NAY          1.8900    -0.0010    -1.1670 ns         1 F46      -0.471100
     24 OBA        -11.7390    -8.1820    -4.0740 os         1 F46      -0.426600
     25 OBC         -5.9470     1.3280    -6.5170 os         1 F46      -0.345900
     26 CBD          1.2160     0.0000     0.0000 c          1 F46       0.679700
     27 CBE         -5.8920    -1.3390    -7.1240 c          1 F46       0.603300
     28 CBF         -0.7390     0.4160    -3.7110 ca         1 F46       0.166600
     29 CBG         -2.9680     0.4220    -4.6400 ca         1 F46       0.209600
     30 CBH          1.7500    -0.7790    -3.4500 ca         1 F46       0.069900
     31 CBI         -9.4500    -2.4090    -6.7480 ca         1 F46       0.137100
     32 CBJ          1.9540     0.0000     1.2810 ca         1 F46      -0.151600
     33 CBK         -7.9320    -0.0990    -6.3030 ca         1 F46      -0.124300
     34 CBL          1.1940    -0.0910    -2.3770 ca         1 F46       0.050600
     35 CBM         -4.9390     0.6070    -5.9920 ca         1 F46       0.184100
     36 CBN         -4.8740    -0.7650    -6.2340 ca         1 F46      -0.229600
     37 CBO         -7.3290    -1.2450    -6.7990 ca         1 F46      -0.101600
     38 NBP        -11.6280    -6.0930    -5.9480 n3         1 F46      -0.716600
     39 HAD          3.8770    -0.0010     4.6190 ha         1 F46       0.134000
     40 HAE          1.4140     0.0000     4.6220 ha         1 F46       0.137000
     41 HAF          5.1160    -0.0010     2.4890 ha         1 F46       0.137000
     42 HAG          0.1750     0.0010     2.4940 ha         1 F46       0.141500
     43 HAH          3.8950    -0.0010     0.3490 ha         1 F46       0.141500
     44 HAI         -0.7160    -0.3450    -5.7180 ha         1 F46       0.154000
     45 HAJ         -2.1410    -1.5510    -4.4230 ha         1 F46       0.152000
     46 HAK          1.4950    -1.4050    -5.4820 ha         1 F46       0.151000
     47 HAL        -11.1130    -1.2540    -6.0360 ha         1 F46       0.135000
     48 HAM         -9.7830     0.7620    -5.6490 ha         1 F46       0.130000
     49 HAN         -3.8430    -2.6170    -5.8350 ha         1 F46       0.147000
     50 HAO         -0.4860     1.0450    -1.6740 ha         1 F46       0.176000
     51 HAP         -3.9960     2.2730    -5.0220 ha         1 F46       0.146000
     52 HAQ         -7.6220    -3.2930    -7.4060 ha         1 F46       0.162000
     53 HARA       -11.6870    -9.4660    -5.6860 h1         1 F46       0.054950
     54 HAS        -11.7180    -6.7160    -2.6240 h1         1 F46       0.054950
     55 HASA       -10.3000    -6.7580    -3.6860 h1         1 F46       0.054950
     56 HAT        -11.6950    -3.2320    -5.6040 h1         1 F46       0.040200
     57 HATA       -12.0550    -2.6860    -7.2480 h1         1 F46       0.040200
     58 HAU        -13.0920    -7.5520    -6.3030 h1         1 F46       0.039950
     59 HAUA       -11.6820    -7.6290    -7.3750 h1         1 F46       0.039950
     60 HAV        -13.1110    -5.9120    -4.4770 h1         1 F46       0.039950
     61 HAVA       -11.7140    -4.8400    -4.2690 h1         1 F46       0.039950
     62 HAW        -13.3060    -4.7340    -6.7980 h1         1 F46       0.055700
     63 HAWA       -12.0480    -5.0780    -7.9930 h1         1 F46       0.055700
     64 HAX         -7.8520     2.0080    -6.4360 h1         1 F46       0.060200
     65 HAXA        -7.2120     1.3430    -4.9370 h1         1 F46       0.060200
     66 HNAY         2.8860     0.0970    -1.1690 hn         1 F46       0.335500
     67 FAC          2.9620    -1.3620    -3.3240 f          1 F46      -0.145900
     68 NAZ         -1.9940     1.0170    -3.8460 nu         1 F46      -0.676000
     69 OAB         -5.5450    -1.9000    -8.1460 o          1 F46      -0.506100
     70 OBB        -10.1860    -3.5310    -6.9630 os         1 F46      -0.307900
     71 HAR        -10.2810    -8.4010    -5.5150 h1         1 F46       0.054950
     72 HNAZ        -2.1870     1.8810    -3.3800 hn         1 F46       0.453800
@<TRIPOS>BOND
     1     1    26 2
     2    69    27 2
     3    67    30 1
     4     2     3 ar
     5     2     4 ar
     6     3     5 ar
     7     4     6 ar
     8     5    32 ar
     9     6    32 ar
    10     7     9 ar
    11     7    28 ar
    12     8    12 ar
    13     8    29 ar
    14     9    30 ar
    15    10    11 ar
    16    10    31 ar
    17    11    33 ar
    18    12    36 ar
    19    13    28 ar
    20    13    34 ar
    21    14    29 ar
    22    14    35 ar
    23    15    31 ar
    24    15    37 ar
    25    16    19 1
    26    16    24 1
    27    17    20 1
    28    17    24 1
    29    18    21 1
    30    18    70 1
    31    19    38 1
    32    20    38 1
    33    21    38 1
    34    22    25 1
    35    22    33 1
    36    23    26 1
    37    23    34 1
    38    68    28 1
    39    68    29 1
    40    70    31 1
    41    25    35 1
    42    26    32 1
    43    27    36 1
    44    27    37 1
    45    30    34 ar
    46    33    37 ar
    47    35    36 ar
    48     2    39 1
    49     3    40 1
    50     4    41 1
    51     5    42 1
    52     6    43 1
    53     7    44 1
    54     8    45 1
    55     9    46 1
    56    10    47 1
    57    11    48 1
    58    12    49 1
    59    13    50 1
    60    14    51 1
    61    15    52 1
    62    16    71 1
    63    16    53 1
    64    17    54 1
    65    17    55 1
    66    18    56 1
    67    18    57 1
    68    19    58 1
    69    19    59 1
    70    20    60 1
    71    20    61 1
    72    21    62 1
    73    21    63 1
    74    22    64 1
    75    22    65 1
    76    23    66 1
    77    68    72 1
@<TRIPOS>SUBSTRUCTURE
     1 F46         1 TEMP              0 ****  ****    0 ROOT
