@<TRIPOS>MOLECULE
molecule
   36    39     1     0     0
SMALL
bcc


@<TRIPOS>ATOM
      1 F24          0.0000     0.0000     0.0000 f          1 F47      -0.132900
      2 N5           7.7410    -0.1120     0.1420 na         1 F47      -0.083500
      3 N7           9.5160    -0.1490     1.3800 nc         1 F47      -0.027000
      4 C18          4.1200     0.0000     0.0000 ca         1 F47      -0.124500
      5 C23          3.4210     0.0000     1.2050 ca         1 F47      -0.087000
      6 C22          2.0420     0.0000     1.2010 ca         1 F47      -0.164000
      7 C1           5.5310    -0.0300     0.9040 cc         1 F47       0.332500
      8 C2           6.0330    -0.0380     2.2260 cc         1 F47       0.352900
      9 C6           8.1960    -0.1100     1.4410 cd         1 F47       0.283500
     10 C11          8.9190     1.2430    -2.6670 ca         1 F47      -0.106300
     11 C13         10.1870     3.1500    -3.3670 ca         1 F47      -0.153500
     12 N3           7.3210    -0.0730     2.4540 nd         1 F47      -0.556000
     13 C15          7.7860     3.2170    -3.4110 ca         1 F47      -0.153500
     14 C12         10.1390     1.8550    -2.8860 ca         1 F47      -0.099500
     15 C14          9.0090     3.8350    -3.6310 ca         1 F47       0.111100
     16 O17          9.0530     5.1080    -4.1030 oh         1 F47      -0.521100
     17 C16          7.7440     1.9220    -2.9300 ca         1 F47      -0.099500
     18 C9           8.8470    -0.1540    -0.6430 cd         1 F47       0.361800
     19 N4           6.3670    -0.0700    -0.1130 nd         1 F47      -0.450800
     20 N8           9.8900    -0.1740     0.1480 nc         1 F47      -0.346700
     21 C19          3.4220    -0.0070    -1.2060 ca         1 F47      -0.087000
     22 C20          2.0420    -0.0060    -1.2010 ca         1 F47      -0.164000
     23 C21          1.3510     0.0000     0.0010 ca         1 F47       0.145900
     24 H22          1.4980     0.0000     2.1380 ha         1 F47       0.154500
     25 H20          1.4980    -0.0110    -2.1380 ha         1 F47       0.154500
     26 H23          3.9600    -0.0170     2.1450 ha         1 F47       0.147000
     27 H19          3.9610    -0.0090    -2.1460 ha         1 F47       0.147000
     28 H2           5.3420    -0.0190     3.0610 h4         1 F47       0.052100
     29 H101         7.9770    -0.6600    -2.5190 hc         1 F47       0.075700
     30 H102         9.7450    -0.7110    -2.4910 hc         1 F47       0.075700
     31 H12         11.0580     1.3200    -2.6800 ha         1 F47       0.139500
     32 H16          6.7900     1.4400    -2.7580 ha         1 F47       0.139500
     33 H13         11.1430     3.6290    -3.5380 ha         1 F47       0.142500
     34 H17          9.0700     5.0940    -5.0450 ho         1 F47       0.420000
     35 H15          6.8650     3.7490    -3.6160 ha         1 F47       0.142500
     36 C10          8.8700    -0.1710    -2.1500 c3         1 F47      -0.021400
@<TRIPOS>BOND
     1     1    23 1
     2    23     6 ar
     3    23    22 ar
     4     6     5 ar
     5     5     4 ar
     6    22    21 ar
     7    21     4 ar
     8     4     7 1
     9     7     8 1
    10     7    19 2
    11     8    12 2
    12    12     9 1
    13    19     2 1
    14     2     9 1
    15     2    18 1
    16     9     3 2
    17     3    20 1
    18    20    18 2
    19    18    36 1
    20    36    10 1
    21    10    14 ar
    22    10    17 ar
    23    14    11 ar
    24    11    15 ar
    25    15    16 1
    26    15    13 ar
    27    13    17 ar
    28     6    24 1
    29    22    25 1
    30     5    26 1
    31    21    27 1
    32     8    28 1
    33    36    29 1
    34    36    30 1
    35    14    31 1
    36    17    32 1
    37    11    33 1
    38    16    34 1
    39    13    35 1
@<TRIPOS>SUBSTRUCTURE
     1 F47         1 TEMP              0 ****  ****    0 ROOT
