@<TRIPOS>MOLECULE
F47
   36    35     1     0     0
SMALL
bcc


@<TRIPOS>ATOM
      1 F24         0.2510    1.2570    3.6840 f         1 F47     -0.073000
      2 N5          7.2860   -0.3980    0.2880 na        1 F47     -0.126000
      3 N7          9.4380   -0.5560    1.0560 n2        1 F47     -0.040000
      4 C18         3.6570   -0.2370    0.6670 c2        1 F47     -0.128000
      5 C23         2.7180   -0.1440    1.5710 c1        1 F47      0.034000
      6 C22         1.7510   -0.0530    2.4450 c2        1 F47     -0.288000
      7 C1          5.0780   -0.2100    1.0260 c2        1 F47     -0.046000
      8 C2          7.3250   -0.9430    3.8560 c1        1 F47      0.206000
      9 C6          8.1200   -0.5770    1.4600 c2        1 F47      0.045000
     10 C11         7.3380    1.2670   -2.4570 c2        1 F47     -0.127000
     11 C13        10.6800    3.4320   -3.0790 c1        1 F47     -0.227000
     12 N3          7.6430   -0.7660    2.7280 n2        1 F47     -0.283000
     13 C15         8.4710    2.9930   -4.0420 c2        1 F47     -0.097000
     14 C12        11.6710    2.9320   -2.6340 c1        1 F47     -0.156000
     15 C14         9.4650    4.0280   -3.5910 c3        1 F47      0.186000
     16 O17         9.7070    4.8610   -4.7280 oh        1 F47     -0.323000
     17 C16         7.9170    2.1320   -3.2410 c1        1 F47     -0.141000
     18 C9          8.2380   -0.2880   -0.7760 c2        1 F47     -0.004000
     19 N4          5.9680   -0.4010    0.0880 n2        1 F47     -0.040000
     20 N8          9.4890   -0.3820   -0.2460 n2        1 F47     -0.078000
     21 C19         3.7390   -0.2970   -2.8700 c1        1 F47     -0.221500
     22 C20         2.5940   -0.4490   -3.1790 c1        1 F47     -0.221500
     23 C21         1.2250    1.2780    2.8200 c1        1 F47      0.157000
     24 H22         1.3320   -0.9700    2.9020 ha        1 F47      0.149000
     25 H20         1.5790   -0.5820   -3.4580 ha        1 F47      0.223000
     26 H23         3.3880   -0.3350   -0.4070 ha        1 F47      0.192000
     27 H19         4.7590   -0.1610   -2.6010 ha        1 F47      0.223000
     28 H2          5.2840   -0.0190    2.0990 h4        1 F47      0.147000
     29 H101        7.0930   -0.8580   -2.4940 hc        1 F47      0.124000
     30 H102        8.7880   -0.2920   -2.8370 hc        1 F47      0.124000
     31 H12        12.5460    2.4850   -2.2330 ha        1 F47      0.229000
     32 H16         6.3930    1.5170   -1.9440 ha        1 F47      0.144000
     33 H13         9.0010    4.6700   -2.7790 h1        1 F47      0.102000
     34 H17        10.4810    5.4000   -4.5260 ho        1 F47      0.212000
     35 H15         8.2270    3.0280   -5.1200 ha        1 F47      0.169000
     36 C10         7.8740   -0.0990   -2.2080 c3        1 F47     -0.047000
@<TRIPOS>BOND
     1    1   23 1   
     2    2    9 1   
     3    2   18 1   
     4    2   19 1   
     5    3    9 1   
     6    3   20 1   
     7    4    5 1   
     8    4    7 1   
     9    4   26 1   
    10    5    6 1   
    11    6   23 1   
    12    6   24 1   
    13    7   19 1   
    14    7   28 1   
    15    8   12 1   
    16    9   12 1   
    17   10   17 1   
    18   10   32 1   
    19   10   36 1   
    20   11   14 1   
    21   11   15 1   
    22   13   15 1   
    23   13   17 1   
    24   13   35 1   
    25   14   31 1   
    26   15   16 1   
    27   15   33 1   
    28   16   34 1   
    29   18   20 1   
    30   18   36 1   
    31   21   22 1   
    32   21   27 1   
    33   22   25 1   
    34   29   36 1   
    35   30   36 1   
@<TRIPOS>SUBSTRUCTURE
     1 F47         1 TEMP              0 ****  ****    0 ROOT
