@<TRIPOS>MOLECULE
F49
   34    35     1     0     0
SMALL
bcc


@<TRIPOS>ATOM
      1 O23          0.0000     0.0000     0.0000 o          1 F49      -0.697500
      2 C10          1.2160     0.0000     0.0000 c          1 F49       0.593500
      3 N12          1.8780     0.0000     1.1710 n          1 F49       0.130000
      4 C19          1.1280     0.0010     2.4300 c3         1 F49      -0.107000
      5 C20          0.8690    -1.4190     2.8610 c          1 F49       0.968600
      6 O22          0.1930    -1.6630     3.9950 o          1 F49      -0.877800
      7 O21          1.2710    -2.3390     2.1880 o          1 F49      -0.877800
      8 C13          3.2460    -0.0020     1.1980 cc         1 F49      -0.043400
      9 C11          3.9380    -0.0020     0.0380 cd         1 F49      -0.373200
     10 C9           3.2280    -0.0020    -1.1870 c          1 F49       0.636700
     11 O18          3.8300    -0.0030    -2.2460 o          1 F49      -0.712500
     12 N8           1.8800    -0.0060    -1.1710 n          1 F49      -0.083400
     13 C7           1.1350    -0.0070    -2.4320 c3         1 F49       0.093300
     14 C1           1.0150    -1.4190    -2.9440 ca         1 F49      -0.113300
     15 C3           0.0720    -2.2770    -2.3970 ca         1 F49       0.188100
     16 O24         -0.7430    -1.8450    -1.3990 os         1 F49      -0.272900
     17 C25         -1.9840    -1.2530    -1.7860 c3         1 F49       0.251700
     18 C5          -0.0370    -3.5780    -2.8710 ca         1 F49       0.008100
     19 Br7         -1.3210    -4.7500    -2.1270 br         1 F49      -0.070100
     20 C6           0.7940    -4.0150    -3.8860 ca         1 F49       0.072100
     21 Br6          0.6450    -5.7860    -4.5320 br         1 F49      -0.098100
     22 C4           1.7320    -3.1560    -4.4310 ca         1 F49       0.034100
     23 Br5          2.8670    -3.7550    -5.8200 br         1 F49      -0.100100
     24 C2           1.8400    -1.8580    -3.9630 ca         1 F49       0.074100
     25 Br4          3.1240    -0.6880    -4.7090 br         1 F49      -0.050100
     26 H1           1.7030     0.5110     3.1930 h1         1 F49       0.038700
     27 H2           0.1830     0.5120     2.2870 h1         1 F49       0.038700
     28 H4           3.7720    -0.0020     2.1450 h4         1 F49       0.126000
     29 H5           5.0210    -0.0030     0.0440 ha         1 F49       0.138000
     30 H6           0.1450     0.4030    -2.2670 h1         1 F49       0.052200
     31 H7           1.6590     0.5980    -3.1620 h1         1 F49       0.052200
     32 H8          -1.9590    -1.0190    -2.8430 h1         1 F49      -0.006300
     33 H9          -2.7920    -1.9480    -1.5890 h1         1 F49      -0.006300
     34 H10         -2.1430    -0.3440    -1.2180 h1         1 F49      -0.006300
@<TRIPOS>BOND
     1     1     2 2   
     2     2     3 1   
     3     2    12 1   
     4     3     4 1   
     5     3     8 1   
     6     4     5 1   
     7     4    26 1   
     8     4    27 1   
     9     5     6 1   
    10     5     7 1   
    11     8     9 2   
    12     8    28 1   
    13     9    10 1   
    14     9    29 1   
    15    10    11 2   
    16    10    12 1   
    17    12    13 1   
    18    13    14 1   
    19    13    30 1   
    20    13    31 1   
    21    14    15 ar  
    22    14    24 ar  
    23    15    16 1   
    24    15    18 ar  
    25    16    17 1   
    26    17    32 1   
    27    17    33 1   
    28    17    34 1   
    29    18    19 1   
    30    18    20 ar  
    31    20    21 1   
    32    20    22 ar  
    33    22    23 1   
    34    22    24 ar  
    35    24    25 1   
@<TRIPOS>SUBSTRUCTURE
     1 F49         1 TEMP              0 ****  ****    0 ROOT
