@<TRIPOS>MOLECULE
molecule
   34    35     1     0     0
SMALL
bcc


@<TRIPOS>ATOM
      1 O23          0.0000     0.0000     0.0000 o          1 F49      -0.648500
      2 C10          1.2160     0.0000     0.0000 c          1 F49       0.813500
      3 N12          1.8780     0.0000     1.1710 n          1 F49      -0.313000
      4 C19          1.1280     0.0010     2.4300 c3         1 F49      -0.018000
      5 C20          0.8690    -1.4190     2.8610 c          1 F49       0.877600
      6 O22          0.1930    -1.6630     3.9950 o          1 F49      -0.825800
      7 O21          1.2710    -2.3390     2.1880 o          1 F49      -0.825800
      8 C13          3.2460    -0.0020     1.1980 cc         1 F49       0.087600
      9 C11          3.9380    -0.0020     0.0380 cd         1 F49      -0.387200
     10 C9           3.2280    -0.0020    -1.1870 c          1 F49       0.710700
     11 O18          3.8300    -0.0030    -2.2460 o          1 F49      -0.661500
     12 N8           1.8800    -0.0060    -1.1710 n          1 F49      -0.468400
     13 C7           1.1350    -0.0070    -2.4320 c3         1 F49       0.157300
     14 C1           1.0150    -1.4190    -2.9440 ca         1 F49      -0.097300
     15 C3           0.0720    -2.2770    -2.3970 ca         1 F49       0.185100
     16 O24         -0.7430    -1.8450    -1.3990 os         1 F49      -0.288900
     17 C25         -1.9840    -1.2530    -1.7860 c3         1 F49       0.142700
     18 C5          -0.0370    -3.5780    -2.8710 ca         1 F49      -0.022900
     19 Br7         -1.3210    -4.7500    -2.1270 br         1 F49      -0.045100
     20 C6           0.7940    -4.0150    -3.8860 ca         1 F49       0.030100
     21 Br6          0.6450    -5.7860    -4.5320 br         1 F49      -0.061100
     22 C4           1.7320    -3.1560    -4.4310 ca         1 F49      -0.005900
     23 Br5          2.8670    -3.7550    -5.8200 br         1 F49      -0.065100
     24 C2           1.8400    -1.8580    -3.9630 ca         1 F49       0.038100
     25 Br4          3.1240    -0.6880    -4.7090 br         1 F49      -0.027100
     26 H1           1.7030     0.5110     3.1930 h1         1 F49       0.060700
     27 H2           0.1830     0.5120     2.2870 h1         1 F49       0.060700
     28 H4           3.7720    -0.0020     2.1450 h4         1 F49       0.159000
     29 H5           5.0210    -0.0030     0.0440 ha         1 F49       0.160000
     30 H6           0.1450     0.4030    -2.2670 h1         1 F49       0.081700
     31 H7           1.6590     0.5980    -3.1620 h1         1 F49       0.081700
     32 H8          -1.9590    -1.0190    -2.8430 h1         1 F49       0.037367
     33 H9          -2.7920    -1.9480    -1.5890 h1         1 F49       0.037367
     34 H10         -2.1430    -0.3440    -1.2180 h1         1 F49       0.037367
@<TRIPOS>BOND
     1     9     8 2
     2     9    10 1
     3     8     3 1
     4    11    10 2
     5    10    12 1
     6     3     4 1
     7     3     2 1
     8     4     5 1
     9     7     5 1
    10     5     6 1
    11    12     2 1
    12    12    13 1
    13     2     1 2
    14    17    16 1
    15    25    24 1
    16    23    22 1
    17    24    22 ar
    18    24    14 ar
    19    13    14 1
    20    22    20 ar
    21    14    15 ar
    22    20    18 ar
    23    20    21 1
    24    15    18 ar
    25    15    16 1
    26    18    19 1
    27     4    26 1
    28     4    27 1
    29     8    28 1
    30     9    29 1
    31    13    30 1
    32    13    31 1
    33    17    32 1
    34    17    33 1
    35    17    34 1
@<TRIPOS>SUBSTRUCTURE
     1 F49         1 TEMP              0 ****  ****    0 ROOT
