@<TRIPOS>MOLECULE
molecule
   30    32     1     0     0
SMALL
bcc


@<TRIPOS>ATOM
      1 O26          0.0000     0.0000     0.0000 o          1 F4A      -0.437100
      2 C17          1.2160     0.0000     0.0000 c          1 F4A       0.507700
      3 N27          1.8910     0.0000     1.1660 nz         1 F4A      -0.676400
      4 C14          1.9530    -0.0060    -1.2780 ca         1 F4A      -0.259600
      5 C15          3.3510    -0.0120    -1.2820 ca         1 F4A      -0.042500
      6 C16          4.0360    -0.0240    -2.4750 ca         1 F4A      -0.153000
      7 C11          3.3370    -0.0290    -3.6790 ca         1 F4A       0.253600
      8 C12          1.9450    -0.0230    -3.6800 ca         1 F4A      -0.153000
      9 C13          1.2550    -0.0120    -2.4900 ca         1 F4A      -0.042500
     10 N10          4.0320    -0.0400    -4.8860 nu         1 F4A      -0.744300
     11 C2           5.2460    -0.7000    -4.9790 ca         1 F4A       0.755200
     12 N3           5.7070    -1.4240    -3.9640 nb         1 F4A      -0.830000
     13 C4           6.8620    -2.0570    -4.0450 ca         1 F4A       0.730900
     14 N5           7.6190    -2.0120    -5.1210 nb         1 F4A      -0.749000
     15 C6           7.2410    -1.3140    -6.1870 ca         1 F4A       0.472800
     16 C1           6.0170    -0.6260    -6.1520 ca         1 F4A      -0.185200
     17 N7           7.7790    -1.0680    -7.4240 na         1 F4A      -0.350000
     18 C8           6.9080    -0.2620    -8.0950 cc         1 F4A       0.451700
     19 N9           5.8750    -0.0040    -7.3470 nd         1 F4A      -0.595100
     20 H1           1.2410     0.0040     1.9270 hn         1 F4A       0.474800
     21 H2           2.4700     0.8150     1.2170 hn         1 F4A       0.474800
     22 H3           3.8950    -0.0080    -0.3450 ha         1 F4A       0.138500
     23 H4           5.1190    -0.0280    -2.4780 ha         1 F4A       0.177500
     24 H5           1.4050    -0.0280    -4.6190 ha         1 F4A       0.177500
     25 H6           0.1720    -0.0080    -2.4920 ha         1 F4A       0.138500
     26 H7           3.6750     0.4630    -5.6740 hn         1 F4A       0.492800
     27 H8           7.2000    -2.6360    -3.1940 h5         1 F4A       0.070100
     28 H9           8.6510    -1.4150    -7.7710 hn         1 F4A       0.329700
     29 H10          7.0540     0.1100    -9.1020 h5         1 F4A       0.094800
     30 H273         2.4670    -0.8170     1.2180 hn         1 F4A       0.474800
@<TRIPOS>BOND
     1    18    19 2
     2    18    17 1
     3    19    16 1
     4    17    15 1
     5    16    15 ar
     6    16    11 ar
     7    15    14 ar
     8    10    11 1
     9    10     7 1
    10    11    12 ar
    11     6     7 ar
    12     6     5 ar
    13     7     8 ar
    14    14    13 ar
    15     5     4 ar
    16    12    13 ar
    17     8     9 ar
    18     4     9 ar
    19     4     2 1
    20     3     2 1
    21     2     1 2
    22     3    20 1
    23     3    21 1
    24     5    22 1
    25     6    23 1
    26     8    24 1
    27     9    25 1
    28    10    26 1
    29    13    27 1
    30    17    28 1
    31    18    29 1
    32    30     3 1
@<TRIPOS>SUBSTRUCTURE
     1 F4A         1 TEMP              0 ****  ****    0 ROOT
