@<TRIPOS>MOLECULE
F4A
   30    32     1     0     0
SMALL
bcc


@<TRIPOS>ATOM
      1 O26          0.0000     0.0000     0.0000 o          1 F4A      -0.453100
      2 C17          1.2160     0.0000     0.0000 c          1 F4A       0.358700
      3 N27          1.8910     0.0000     1.1660 nz         1 F4A       0.201600
      4 C14          1.9530    -0.0060    -1.2780 ca         1 F4A      -0.288600
      5 C15          3.3510    -0.0120    -1.2820 ca         1 F4A       0.001000
      6 C16          4.0360    -0.0240    -2.4750 ca         1 F4A      -0.133500
      7 C11          3.3370    -0.0290    -3.6790 ca         1 F4A       0.096600
      8 C12          1.9450    -0.0230    -3.6800 ca         1 F4A      -0.133500
      9 C13          1.2550    -0.0120    -2.4900 ca         1 F4A       0.001000
     10 N10          4.0320    -0.0400    -4.8860 nu         1 F4A      -0.260300
     11 C2           5.2460    -0.7000    -4.9790 ca         1 F4A       0.553200
     12 N3           5.7070    -1.4240    -3.9640 nb         1 F4A      -0.722000
     13 C4           6.8620    -2.0570    -4.0450 ca         1 F4A       0.666900
     14 N5           7.6190    -2.0120    -5.1210 nb         1 F4A      -0.614000
     15 C6           7.2410    -1.3140    -6.1870 ca         1 F4A       0.240800
     16 C1           6.0170    -0.6260    -6.1520 ca         1 F4A      -0.212200
     17 N7           7.7790    -1.0680    -7.4240 na         1 F4A       0.194000
     18 C8           6.9080    -0.2620    -8.0950 cc         1 F4A       0.263700
     19 N9           5.8750    -0.0040    -7.3470 nd         1 F4A      -0.503100
     20 H1           1.2410     0.0040     1.9270 hn         1 F4A       0.244133
     21 H2           2.4700     0.8150     1.2170 hn         1 F4A       0.244133
     22 H3           3.8950    -0.0080    -0.3450 ha         1 F4A       0.104000
     23 H4           5.1190    -0.0280    -2.4780 ha         1 F4A       0.147000
     24 H5           1.4050    -0.0280    -4.6190 ha         1 F4A       0.147000
     25 H6           0.1720    -0.0080    -2.4920 ha         1 F4A       0.104000
     26 H7           3.6750     0.4630    -5.6740 hn         1 F4A       0.317800
     27 H8           7.2000    -2.6360    -3.1940 h5         1 F4A       0.004100
     28 H9           8.6510    -1.4150    -7.7710 hn         1 F4A       0.145700
     29 H10          7.0540     0.1100    -9.1020 h5         1 F4A       0.042800
     30 H273         2.4670    -0.8170     1.2180 hn         1 F4A       0.244133
@<TRIPOS>BOND
     1     1     2 2   
     2     2     3 1   
     3     2     4 1   
     4     3    20 1   
     5     3    21 1   
     6     3    30 1   
     7     4     5 ar  
     8     4     9 ar  
     9     5     6 ar  
    10     5    22 1   
    11     6     7 ar  
    12     6    23 1   
    13     7     8 ar  
    14     7    10 1   
    15     8     9 ar  
    16     8    24 1   
    17     9    25 1   
    18    10    11 1   
    19    10    26 1   
    20    11    12 ar  
    21    11    16 ar  
    22    12    13 ar  
    23    13    14 ar  
    24    13    27 1   
    25    14    15 ar  
    26    15    16 ar  
    27    15    17 1   
    28    16    19 1   
    29    17    18 1   
    30    17    28 1   
    31    18    19 2   
    32    18    29 1   
@<TRIPOS>SUBSTRUCTURE
     1 F4A         1 TEMP              0 ****  ****    0 ROOT
