@<TRIPOS>MOLECULE
F4C
   50    53     1     0     0
SMALL
bcc


@<TRIPOS>ATOM
      1 N1           0.0000     0.0000     0.0000 n          1 F4C       0.431000
      2 N3           4.2290     0.1240     0.1530 ns         1 F4C      -0.209900
      3 C4          -0.1230     0.0060     2.2770 cc         1 F4C       0.368200
      4 C6           3.5160     0.0000     1.2910 c          1 F4C       0.616300
      5 C7           6.3860     1.4540    -1.7340 ca         1 F4C      -0.197300
      6 C8          -0.6780     0.0000    -1.2230 ca         1 F4C      -0.161400
      7 C10         -0.9750     0.0130     3.4920 ca         1 F4C      -0.087900
      8 C13         -1.7120    -0.9010    -1.4460 ca         1 F4C      -0.034500
      9 C15         -2.3790    -0.8990    -2.6550 ca         1 F4C      -0.131000
     10 C17          6.8960     1.6150    -3.0080 ca         1 F4C      -0.046000
     11 C20         -2.3690     0.0190     3.3910 ca         1 F4C      -0.206300
     12 C21         -0.4050     0.0090     4.7680 ca         1 F4C      -0.206300
     13 C22          6.5980    -0.9210    -1.9500 ca         1 F4C      -0.089000
     14 C24          7.1040    -0.7590    -3.2260 ca         1 F4C      -0.066000
     15 C14         -2.0180    -0.0010    -3.6450 ca         1 F4C       0.128900
     16 C16         -0.9890     0.8990    -3.4250 ca         1 F4C      -0.131000
     17 C12         -0.3220     0.9050    -2.2150 ca         1 F4C      -0.034500
     18 C2           1.3460     0.0000     0.0000 c          1 F4C       0.557700
     19 O1           1.9620     0.0000    -1.0520 o          1 F4C      -0.694500
     20 N2          -0.6810     0.0050     1.0870 nd         1 F4C      -0.509300
     21 C18         -3.1240     0.0240     4.5460 ca         1 F4C       0.405700
     22 C19         -1.2350     0.0140     5.8710 ca         1 F4C       0.405700
     23 N4          -2.5460     0.0260     5.7320 nb         1 F4C      -0.576000
     24 C3           1.2810     0.0010     2.4060 cc         1 F4C      -0.072600
     25 C1           2.0420     0.0000     1.2400 cd         1 F4C      -0.266400
     26 O2           4.0880    -0.1120     2.3570 o          1 F4C      -0.665100
     27 C11          5.6890     0.0100     0.1880 c3         1 F4C       0.082300
     28 C9           6.2390     0.1860    -1.2040 ca         1 F4C      -0.051300
     29 C23          7.2560     0.5090    -3.7550 ca         1 F4C      -0.102000
     30 F1           6.2380     3.8220    -1.6620 f          1 F4C      -0.206967
     31 F2           4.6340     2.5880    -0.6030 f          1 F4C      -0.206967
     32 F3           6.7470     2.6930     0.2580 f          1 F4C      -0.206967
     33 HN3          3.7580     0.2470    -0.7220 hn         1 F4C       0.238500
     34 H13         -1.9940    -1.6050    -0.6720 ha         1 F4C       0.124500
     35 H15         -3.1850    -1.6020    -2.8290 ha         1 F4C       0.125500
     36 H17          7.0150     2.6090    -3.4220 ha         1 F4C       0.122000
     37 H20         -2.8500     0.0180     2.4200 ha         1 F4C       0.126000
     38 H21          0.6710    -0.0010     4.8890 ha         1 F4C       0.126000
     39 H22          6.4810    -1.9150    -1.5350 ha         1 F4C       0.116000
     40 H24          7.3850    -1.6270    -3.8110 ha         1 F4C       0.107000
     41 H16         -0.7100     1.6030    -4.2000 ha         1 F4C       0.125500
     42 H12          0.4830     1.6090    -2.0430 ha         1 F4C       0.124500
     43 H18         -4.2050     0.0310     4.4780 h4         1 F4C      -0.017400
     44 H19         -0.8030     0.0130     6.8640 h4         1 F4C      -0.017400
     45 H3           1.7390     0.2620     3.3520 ha         1 F4C       0.148000
     46 H11          6.0960     0.7750     0.8370 h1         1 F4C       0.040200
     47 H11A         5.9660    -0.9680     0.5650 h1         1 F4C       0.040200
     48 H23          7.6540     0.6350    -4.7540 ha         1 F4C       0.111000
     49 F4          -2.6730    -0.0000    -4.8260 f          1 F4C      -0.122900
     50 C5           5.9940     2.6600    -0.9210 c3         1 F4C       0.644200
@<TRIPOS>BOND
     1     1     6 1   
     2     1    18 1   
     3     1    20 1   
     4     2     4 1   
     5     2    27 1   
     6     2    33 1   
     7     3     7 1   
     8     3    20 2   
     9     3    24 1   
    10     4    25 1   
    11     4    26 2   
    12     5    10 ar  
    13     5    28 ar  
    14     5    50 1   
    15     6     8 ar  
    16     6    17 ar  
    17     7    11 ar  
    18     7    12 ar  
    19     8     9 ar  
    20     8    34 1   
    21     9    15 ar  
    22     9    35 1   
    23    10    29 ar  
    24    10    36 1   
    25    11    21 ar  
    26    11    37 1   
    27    12    22 ar  
    28    12    38 1   
    29    13    14 ar  
    30    13    28 ar  
    31    13    39 1   
    32    14    29 ar  
    33    14    40 1   
    34    15    16 ar  
    35    15    49 1   
    36    16    17 ar  
    37    16    41 1   
    38    17    42 1   
    39    18    19 2   
    40    18    25 1   
    41    21    23 ar  
    42    21    43 1   
    43    22    23 ar  
    44    22    44 1   
    45    24    25 2   
    46    24    45 1   
    47    27    28 1   
    48    27    46 1   
    49    27    47 1   
    50    29    48 1   
    51    30    50 1   
    52    31    50 1   
    53    32    50 1   
@<TRIPOS>SUBSTRUCTURE
     1 F4C         1 TEMP              0 ****  ****    0 ROOT
