@<TRIPOS>MOLECULE
molecule
   50    53     1     0     0
SMALL
bcc


@<TRIPOS>ATOM
      1 N1           0.0000     0.0000     0.0000 n          1 F4C      -0.018000
      2 N3           4.2290     0.1240     0.1530 ns         1 F4C      -0.569900
      3 C4          -0.1230     0.0060     2.2770 cc         1 F4C       0.388200
      4 C6           3.5160     0.0000     1.2910 c          1 F4C       0.690300
      5 C7           6.3860     1.4540    -1.7340 ca         1 F4C      -0.167300
      6 C8          -0.6780     0.0000    -1.2230 ca         1 F4C       0.012600
      7 C10         -0.9750     0.0130     3.4920 ca         1 F4C      -0.075900
      8 C13         -1.7120    -0.9010    -1.4460 ca         1 F4C      -0.074500
      9 C15         -2.3790    -0.8990    -2.6550 ca         1 F4C      -0.164000
     10 C17          6.8960     1.6150    -3.0080 ca         1 F4C      -0.085000
     11 C20         -2.3690     0.0190     3.3910 ca         1 F4C      -0.234300
     12 C21         -0.4050     0.0090     4.7680 ca         1 F4C      -0.234300
     13 C22          6.5980    -0.9210    -1.9500 ca         1 F4C      -0.115000
     14 C24          7.1040    -0.7590    -3.2260 ca         1 F4C      -0.102000
     15 C14         -2.0180    -0.0010    -3.6450 ca         1 F4C       0.147900
     16 C16         -0.9890     0.8990    -3.4250 ca         1 F4C      -0.164000
     17 C12         -0.3220     0.9050    -2.2150 ca         1 F4C      -0.074500
     18 C2           1.3460     0.0000     0.0000 c          1 F4C       0.659700
     19 O1           1.9620     0.0000    -1.0520 o          1 F4C      -0.640500
     20 N2          -0.6810     0.0050     1.0870 nd         1 F4C      -0.430300
     21 C18         -3.1240     0.0240     4.5460 ca         1 F4C       0.422700
     22 C19         -1.2350     0.0140     5.8710 ca         1 F4C       0.422700
     23 N4          -2.5460     0.0260     5.7320 nb         1 F4C      -0.683000
     24 C3           1.2810     0.0010     2.4060 cc         1 F4C      -0.103600
     25 C1           2.0420     0.0000     1.2400 cd         1 F4C      -0.245400
     26 O2           4.0880    -0.1120     2.3570 o          1 F4C      -0.617100
     27 C11          5.6890     0.0100     0.1880 c3         1 F4C       0.142300
     28 C9           6.2390     0.1860    -1.2040 ca         1 F4C      -0.061300
     29 C23          7.2560     0.5090    -3.7550 ca         1 F4C      -0.127000
     30 F1           6.2380     3.8220    -1.6620 f          1 F4C      -0.221300
     31 F2           4.6340     2.5880    -0.6030 f          1 F4C      -0.221300
     32 F3           6.7470     2.6930     0.2580 f          1 F4C      -0.221300
     33 HN3          3.7580     0.2470    -0.7220 hn         1 F4C       0.358500
     34 H13         -1.9940    -1.6050    -0.6720 ha         1 F4C       0.156500
     35 H15         -3.1850    -1.6020    -2.8290 ha         1 F4C       0.155000
     36 H17          7.0150     2.6090    -3.4220 ha         1 F4C       0.151000
     37 H20         -2.8500     0.0180     2.4200 ha         1 F4C       0.150000
     38 H21          0.6710    -0.0010     4.8890 ha         1 F4C       0.150000
     39 H22          6.4810    -1.9150    -1.5350 ha         1 F4C       0.144000
     40 H24          7.3850    -1.6270    -3.8110 ha         1 F4C       0.138000
     41 H16         -0.7100     1.6030    -4.2000 ha         1 F4C       0.155000
     42 H12          0.4830     1.6090    -2.0430 ha         1 F4C       0.156500
     43 H18         -4.2050     0.0310     4.4780 h4         1 F4C       0.028600
     44 H19         -0.8030     0.0130     6.8640 h4         1 F4C       0.028600
     45 H3           1.7390     0.2620     3.3520 ha         1 F4C       0.178000
     46 H11          6.0960     0.7750     0.8370 h1         1 F4C       0.068200
     47 H11A         5.9660    -0.9680     0.5650 h1         1 F4C       0.068200
     48 H23          7.6540     0.6350    -4.7540 ha         1 F4C       0.140000
     49 F4          -2.6730    -0.0000    -4.8260 f          1 F4C      -0.133900
     50 C5           5.9940     2.6600    -0.9210 c3         1 F4C       0.674200
@<TRIPOS>BOND
     1     1     6 1
     2     1    18 1
     3     1    20 1
     4     2     4 1
     5     2    27 1
     6     3     7 1
     7     3    20 2
     8     3    24 1
     9    50     5 1
    10    50    30 1
    11    50    31 1
    12    50    32 1
    13     4    25 1
    14     4    26 2
    15     5    10 ar
    16     5    28 ar
    17     6     8 ar
    18     6    17 ar
    19     7    11 ar
    20     7    12 ar
    21     8     9 ar
    22     9    15 ar
    23    10    29 ar
    24    11    21 ar
    25    12    22 ar
    26    13    14 ar
    27    13    28 ar
    28    14    29 ar
    29    49    15 1
    30    15    16 ar
    31    16    17 ar
    32    18    19 2
    33    18    25 1
    34    21    23 ar
    35    22    23 ar
    36    24    25 2
    37    27    28 1
    38     2    33 1
    39     8    34 1
    40     9    35 1
    41    10    36 1
    42    11    37 1
    43    12    38 1
    44    13    39 1
    45    14    40 1
    46    16    41 1
    47    17    42 1
    48    21    43 1
    49    22    44 1
    50    24    45 1
    51    27    46 1
    52    27    47 1
    53    29    48 1
@<TRIPOS>SUBSTRUCTURE
     1 F4C         1 TEMP              0 ****  ****    0 ROOT
