@<TRIPOS>MOLECULE
molecule
   60    63     1     0     0
SMALL
bcc


@<TRIPOS>ATOM
      1 O4           0.0000     0.0000     0.0000 o          1 F4D      -0.610300
      2 S1           1.4210     0.0000     0.0000 sy         1 F4D       1.417200
      3 O3           2.1990     0.0000     1.1900 o          1 F4D      -0.610300
      4 C18          1.9180    -1.4190    -0.9200 ca         1 F4D      -0.342500
      5 C23          3.1670    -1.9740    -0.7090 ca         1 F4D      -0.002500
      6 C22          3.5590    -3.0870    -1.4290 ca         1 F4D      -0.188500
      7 C21          2.7000    -3.6450    -2.3610 ca         1 F4D       0.200900
      8 F1           3.0810    -4.7330    -3.0660 f          1 F4D      -0.119900
      9 C20          1.4500    -3.0880    -2.5700 ca         1 F4D      -0.188500
     10 C19          1.0590    -1.9780    -1.8450 ca         1 F4D      -0.002500
     11 N2           1.8890     1.3330    -0.8640 nu         1 F4D      -0.758500
     12 C1           1.3160     1.5920    -2.1170 ca         1 F4D       0.062300
     13 C2           2.0780     2.1570    -3.1400 ca         1 F4D       0.624600
     14 O1           3.3830     2.4550    -2.9180 os         1 F4D      -0.324400
     15 C6           4.1280     2.8750    -3.9730 ca         1 F4D       0.179100
     16 C12          5.1950     3.7410    -3.7660 ca         1 F4D      -0.136500
     17 C11          5.9540     4.1690    -4.8340 ca         1 F4D      -0.066500
     18 C10          5.6490     3.7320    -6.1240 ca         1 F4D      -0.222900
     19 C25          6.4620     4.1890    -7.2720 ce         1 F4D       0.539800
     20 N6           7.5350     4.9000    -7.0690 n2         1 F4D      -0.675100
     21 N5           6.0830     3.8630    -8.5580 nz         1 F4D      -0.801600
     22 C9           4.5770     2.8620    -6.3280 ca         1 F4D      -0.066500
     23 C8           3.8260     2.4340    -5.2540 ca         1 F4D      -0.136500
     24 C5          -0.0190     1.2850    -2.3580 ca         1 F4D      -0.096000
     25 C4          -0.5430     1.5580    -3.6130 ca         1 F4D      -0.206300
     26 C3           0.2720     2.1260    -4.5810 ca         1 F4D       0.612600
     27 N1           1.5410     2.4030    -4.3230 nb         1 F4D      -0.817000
     28 O2          -0.2370     2.3970    -5.8110 os         1 F4D      -0.322400
     29 C7           0.0420     3.6050    -6.3630 ca         1 F4D       0.199100
     30 C17          0.8550     4.5070    -5.6860 ca         1 F4D      -0.166000
     31 C16          1.1390     5.7340    -6.2450 ca         1 F4D      -0.057000
     32 C15          0.6110     6.0700    -7.4920 ca         1 F4D      -0.245900
     33 C24          0.9140     7.3870    -8.0940 ce         1 F4D       0.547800
     34 N4           0.2840     7.7740    -9.2570 nz         1 F4D      -0.802600
     35 N3           1.7770     8.1810    -7.5260 n2         1 F4D      -0.700100
     36 C14         -0.2050     5.1620    -8.1690 ca         1 F4D      -0.057000
     37 C13         -0.4810     3.9350    -7.6070 ca         1 F4D      -0.166000
     38 H1           3.8390    -1.5370     0.0200 ha         1 F4D       0.155500
     39 H2           4.5370    -3.5220    -1.2650 ha         1 F4D       0.160500
     40 H3           0.7770    -3.5250    -3.2970 ha         1 F4D       0.160500
     41 H4           0.0810    -1.5420    -2.0080 ha         1 F4D       0.155500
     42 H5           2.5440     1.9790    -0.4710 hn         1 F4D       0.479800
     43 H6           5.4310     4.0790    -2.7640 ha         1 F4D       0.186000
     44 H7           6.7860     4.8440    -4.6720 ha         1 F4D       0.143000
     45 H8           8.0850     5.2100    -7.8460 hn         1 F4D       0.436400
     46 H9           5.1490     4.1820    -8.7220 hn         1 F4D       0.462800
     47 H10          6.1220     2.8700    -8.6750 hn         1 F4D       0.462800
     48 H11          4.3390     2.5190    -7.3270 ha         1 F4D       0.143000
     49 H12          2.9940     1.7590    -5.4110 ha         1 F4D       0.186000
     50 H13         -0.6810     1.0630    -1.5310 ha         1 F4D       0.232000
     51 H14         -1.5280     1.1940    -3.8790 ha         1 F4D       0.182000
     52 H15          1.2650     4.2450    -4.7180 ha         1 F4D       0.186500
     53 H16          1.7720     6.4370    -5.7170 ha         1 F4D       0.143500
     54 H17         -0.7080     7.7340    -9.1290 hn         1 F4D       0.467133
     55 H18          0.5530     8.7100    -9.4870 hn         1 F4D       0.467133
     56 H19          1.9830     9.0710    -7.9340 hn         1 F4D       0.436400
     57 H20         -0.6150     5.4190    -9.1390 ha         1 F4D       0.143500
     58 H21         -1.1130     3.2300    -8.1320 ha         1 F4D       0.186500
     59 H53          6.6990     4.3080    -9.2100 hn         1 F4D       0.462800
     60 H43          0.5600     7.1680   -10.0040 hn         1 F4D       0.467133
@<TRIPOS>BOND
     1     9    10 ar
     2     9     7 ar
     3    10     4 ar
     4     8     7 1
     5     7     6 ar
     6     1     2 2
     7     4     2 1
     8     4     5 ar
     9     2     3 2
    10     2    11 1
    11     6     5 ar
    12    11    12 1
    13    12    24 ar
    14    12    13 ar
    15    14    13 1
    16    14    15 1
    17    23    15 ar
    18    23    22 ar
    19    24    25 ar
    20    13    27 ar
    21    15    16 ar
    22    22    18 ar
    23    25    26 ar
    24    16    17 ar
    25    27    26 ar
    26    18    17 ar
    27    18    19 1
    28    20    19 2
    29    26    28 1
    30    19    21 1
    31    30    31 ar
    32    30    29 ar
    33    28    29 1
    34    31    32 ar
    35    29    37 ar
    36    32    33 1
    37    32    36 ar
    38    37    36 ar
    39    35    33 2
    40    33    34 1
    41     5    38 1
    42     6    39 1
    43     9    40 1
    44    10    41 1
    45    11    42 1
    46    16    43 1
    47    17    44 1
    48    20    45 1
    49    21    46 1
    50    21    47 1
    51    22    48 1
    52    23    49 1
    53    24    50 1
    54    25    51 1
    55    30    52 1
    56    31    53 1
    57    34    54 1
    58    34    55 1
    59    35    56 1
    60    36    57 1
    61    37    58 1
    62    59    21 1
    63    60    34 1
@<TRIPOS>SUBSTRUCTURE
     1 F4D         1 TEMP              0 ****  ****    0 ROOT
