@<TRIPOS>MOLECULE
F4D
   60    63     1     0     0
SMALL
bcc


@<TRIPOS>ATOM
      1 O4           0.0000     0.0000     0.0000 o          1 F4D      -0.561300
      2 S1           1.4210     0.0000     0.0000 sy         1 F4D       1.047200
      3 O3           2.1990     0.0000     1.1900 o          1 F4D      -0.561300
      4 C18          1.9180    -1.4190    -0.9200 ca         1 F4D      -0.190500
      5 C23          3.1670    -1.9740    -0.7090 ca         1 F4D       0.030500
      6 C22          3.5590    -3.0870    -1.4290 ca         1 F4D      -0.160500
      7 C21          2.7000    -3.6450    -2.3610 ca         1 F4D       0.173900
      8 F1           3.0810    -4.7330    -3.0660 f          1 F4D      -0.113900
      9 C20          1.4500    -3.0880    -2.5700 ca         1 F4D      -0.160500
     10 C19          1.0590    -1.9780    -1.8450 ca         1 F4D       0.030500
     11 N2           1.8890     1.3330    -0.8640 nu         1 F4D      -0.393500
     12 C1           1.3160     1.5920    -2.1170 ca         1 F4D      -0.023700
     13 C2           2.0780     2.1570    -3.1400 ca         1 F4D       0.564600
     14 O1           3.3830     2.4550    -2.9180 os         1 F4D      -0.307400
     15 C6           4.1280     2.8750    -3.9730 ca         1 F4D       0.191100
     16 C12          5.1950     3.7410    -3.7660 ca         1 F4D      -0.117500
     17 C11          5.9540     4.1690    -4.8340 ca         1 F4D      -0.047500
     18 C10          5.6490     3.7320    -6.1240 ca         1 F4D      -0.266900
     19 C25          6.4620     4.1890    -7.2720 ce         1 F4D       0.205800
     20 N6           7.5350     4.9000    -7.0690 n2         1 F4D      -0.479100
     21 N5           6.0830     3.8630    -8.5580 nz         1 F4D       0.193400
     22 C9           4.5770     2.8620    -6.3280 ca         1 F4D      -0.047500
     23 C8           3.8260     2.4340    -5.2540 ca         1 F4D      -0.117500
     24 C5          -0.0190     1.2850    -2.3580 ca         1 F4D      -0.078000
     25 C4          -0.5430     1.5580    -3.6130 ca         1 F4D      -0.177300
     26 C3           0.2720     2.1260    -4.5810 ca         1 F4D       0.559600
     27 N1           1.5410     2.4030    -4.3230 nb         1 F4D      -0.698000
     28 O2          -0.2370     2.3970    -5.8110 os         1 F4D      -0.303400
     29 C7           0.0420     3.6050    -6.3630 ca         1 F4D       0.214100
     30 C17          0.8550     4.5070    -5.6860 ca         1 F4D      -0.148500
     31 C16          1.1390     5.7340    -6.2450 ca         1 F4D      -0.034000
     32 C15          0.6110     6.0700    -7.4920 ca         1 F4D      -0.290900
     33 C24          0.9140     7.3870    -8.0940 ce         1 F4D       0.225800
     34 N4           0.2840     7.7740    -9.2570 nz         1 F4D       0.189400
     35 N3           1.7770     8.1810    -7.5260 n2         1 F4D      -0.505100
     36 C14         -0.2050     5.1620    -8.1690 ca         1 F4D      -0.034000
     37 C13         -0.4810     3.9350    -7.6070 ca         1 F4D      -0.148500
     38 H1           3.8390    -1.5370     0.0200 ha         1 F4D       0.126000
     39 H2           4.5370    -3.5220    -1.2650 ha         1 F4D       0.133000
     40 H3           0.7770    -3.5250    -3.2970 ha         1 F4D       0.133000
     41 H4           0.0810    -1.5420    -2.0080 ha         1 F4D       0.126000
     42 H5           2.5440     1.9790    -0.4710 hn         1 F4D       0.359800
     43 H6           5.4310     4.0790    -2.7640 ha         1 F4D       0.156500
     44 H7           6.7860     4.8440    -4.6720 ha         1 F4D       0.100000
     45 H8           7.8100     5.1380    -6.1370 hn         1 F4D       0.383400
     46 H9           6.7130     4.2890    -9.2090 hn         1 F4D       0.219133
     47 H10          5.1550     4.1950    -8.7270 hn         1 F4D       0.219133
     48 H11          4.3390     2.5190    -7.3270 ha         1 F4D       0.100000
     49 H12          2.9940     1.7590    -5.4110 ha         1 F4D       0.156500
     50 H13         -0.6810     1.0630    -1.5310 ha         1 F4D       0.204000
     51 H14         -1.5280     1.1940    -3.8790 ha         1 F4D       0.145000
     52 H15          1.2650     4.2450    -4.7180 ha         1 F4D       0.156500
     53 H16          1.7720     6.4370    -5.7170 ha         1 F4D       0.099000
     54 H17          0.5370     7.1500    -9.9970 hn         1 F4D       0.224133
     55 H18         -0.7080     7.7490    -9.1240 hn         1 F4D       0.224133
     56 H19          2.2360     7.9010    -6.6820 hn         1 F4D       0.375400
     57 H20         -0.6150     5.4190    -9.1390 ha         1 F4D       0.099000
     58 H21         -1.1130     3.2300    -8.1320 ha         1 F4D       0.156500
     59 H53          6.1170     2.8700    -8.6740 hn         1 F4D       0.219133
     60 H43          0.5760     8.6990    -9.5030 hn         1 F4D       0.224133
@<TRIPOS>BOND
     1     1     2 2   
     2     2     3 2   
     3     2     4 1   
     4     2    11 1   
     5     4     5 ar  
     6     4    10 ar  
     7     5     6 ar  
     8     5    38 1   
     9     6     7 ar  
    10     6    39 1   
    11     7     8 1   
    12     7     9 ar  
    13     9    10 ar  
    14     9    40 1   
    15    10    41 1   
    16    11    12 1   
    17    11    42 1   
    18    12    13 ar  
    19    12    24 ar  
    20    13    14 1   
    21    13    27 ar  
    22    14    15 1   
    23    15    16 ar  
    24    15    23 ar  
    25    16    17 ar  
    26    16    43 1   
    27    17    18 ar  
    28    17    44 1   
    29    18    19 1   
    30    18    22 ar  
    31    19    20 2   
    32    19    21 1   
    33    20    45 1   
    34    21    46 1   
    35    21    47 1   
    36    21    59 1   
    37    22    23 ar  
    38    22    48 1   
    39    23    49 1   
    40    24    25 ar  
    41    24    50 1   
    42    25    26 ar  
    43    25    51 1   
    44    26    27 ar  
    45    26    28 1   
    46    28    29 1   
    47    29    30 ar  
    48    29    37 ar  
    49    30    31 ar  
    50    30    52 1   
    51    31    32 ar  
    52    31    53 1   
    53    32    33 1   
    54    32    36 ar  
    55    33    34 1   
    56    33    35 2   
    57    34    54 1   
    58    34    55 1   
    59    34    60 1   
    60    35    56 1   
    61    36    37 ar  
    62    36    57 1   
    63    37    58 1   
@<TRIPOS>SUBSTRUCTURE
     1 F4D         1 TEMP              0 ****  ****    0 ROOT
