@<TRIPOS>MOLECULE
molecule
   29    31     1     0     0
SMALL
bcc


@<TRIPOS>ATOM
      1 O17          0.0000     0.0000     0.0000 o          1 F4G      -0.443100
      2 C16          1.2170     0.0000     0.0000 c          1 F4G       0.533700
      3 N18          1.8900     0.0000     1.1680 nz         1 F4G      -0.668400
      4 C1           1.9530    -0.0050    -1.2750 cc         1 F4G      -0.221600
      5 C6           1.2760    -0.0050    -2.4890 cc         1 F4G       0.058000
      6 C5           2.0080    -0.0050    -3.6790 cc         1 F4G      -0.205000
      7 C4           3.3600    -0.0040    -3.6680 cd         1 F4G       0.024700
      8 N3           4.0650    -0.0050    -2.5050 na         1 F4G       0.044700
      9 C9           5.4160    -0.0050    -2.2330 cc         1 F4G      -0.081300
     10 C8           5.5450    -0.0050    -0.8750 cd         1 F4G       0.075600
     11 N7           4.3250    -0.0050    -0.3350 nd         1 F4G      -0.386600
     12 C2           3.4180    -0.0040    -1.2960 cc         1 F4G      -0.038300
     13 C10          6.5140    -0.0060    -3.2220 ca         1 F4G      -0.179100
     14 C15          6.2960     0.4480    -4.5280 ca         1 F4G      -0.097000
     15 C14          7.3580     0.4330    -5.4150 ca         1 F4G      -0.237300
     16 C13          8.5900    -0.0270    -4.9850 ca         1 F4G       0.448200
     17 N12          8.7680    -0.4490    -3.7480 nb         1 F4G      -0.664000
     18 C11          7.7880    -0.4530    -2.8680 ca         1 F4G       0.454200
     19 H1           2.4670     0.8160     1.2200 hn         1 F4G       0.483800
     20 H2           2.4640    -0.8180     1.2220 hn         1 F4G       0.483800
     21 H3           0.1930    -0.0060    -2.5120 ha         1 F4G       0.184000
     22 H4           1.4830    -0.0040    -4.6260 ha         1 F4G       0.187000
     23 H5           3.8950    -0.0030    -4.6100 h4         1 F4G       0.195000
     24 H6           6.4800    -0.0060    -0.3280 h4         1 F4G       0.210000
     25 H7           5.3200     0.8030    -4.8370 ha         1 F4G       0.128000
     26 H8           7.2260     0.7760    -6.4340 ha         1 F4G       0.155000
     27 H9           9.4240    -0.0400    -5.6770 h4         1 F4G       0.044100
     28 H10          7.9720    -0.8070    -1.8610 h4         1 F4G       0.030100
     29 H183         1.2390     0.0090     1.9280 hn         1 F4G       0.483800
@<TRIPOS>BOND
     1    15    16 ar
     2    15    14 ar
     3    16    17 ar
     4    14    13 ar
     5     6     7 2
     6     6     5 1
     7     7     8 1
     8    17    18 ar
     9    13    18 ar
    10    13     9 1
    11     5     4 2
    12     8     9 1
    13     8    12 1
    14     9    10 2
    15     4    12 1
    16     4     2 1
    17    12    11 2
    18    10    11 1
    19     3     2 1
    20     2     1 2
    21     3    19 1
    22     3    20 1
    23     5    21 1
    24     6    22 1
    25     7    23 1
    26    10    24 1
    27    14    25 1
    28    15    26 1
    29    16    27 1
    30    18    28 1
    31    29     3 1
@<TRIPOS>SUBSTRUCTURE
     1 F4G         1 TEMP              0 ****  ****    0 ROOT
