@<TRIPOS>MOLECULE
F4J
   28    31     1     0     0
SMALL
bcc


@<TRIPOS>ATOM
      1 O20          0.0000     0.0000     0.0000 o          1 F4J      -0.498100
      2 C17          1.2150     0.0000     0.0000 c          1 F4J       0.726100
      3 N18          2.0070     0.0000     1.0890 nc         1 F4J      -0.566100
      4 C19          3.2700    -0.0010     0.7720 cd         1 F4J       0.568800
      5 C13          3.4070    -0.0030    -0.6970 ca         1 F4J      -0.209900
      6 C12          4.4760    -0.0060    -1.5710 ca         1 F4J      -0.040000
      7 C14          2.0860    -0.0080    -1.2010 ca         1 F4J      -0.227600
      8 C15          1.8640    -0.0150    -2.5630 ca         1 F4J       0.009000
      9 C16          2.9420    -0.0210    -3.4400 ca         1 F4J      -0.139000
     10 C11          4.2400    -0.0070    -2.9530 ca         1 F4J       0.016600
     11 N10          5.3120    -0.0090    -3.8390 nu         1 F4J      -0.307300
     12 C1           6.4640     0.7010    -3.5360 ca         1 F4J       0.557200
     13 N6           6.5200     1.4770    -2.4560 nb         1 F4J      -0.700000
     14 C5           7.6130     2.1550    -2.1600 ca         1 F4J       0.656900
     15 N4           8.6970     2.1110    -2.9030 nb         1 F4J      -0.603000
     16 C2           7.5910     0.6160    -4.3550 ca         1 F4J      -0.587800
     17 N9           7.9110    -0.0570    -5.5150 na         1 F4J       0.291700
     18 C8           9.1840     0.2730    -5.8290 cc         1 F4J       0.264700
     19 N7           9.6650     1.1000    -4.9440 nd         1 F4J      -0.582700
     20 C3           8.7320     1.3600    -4.0080 ca         1 F4J       0.568300
     21 H1           3.9810    -0.5440     1.3830 h4         1 F4J       0.001800
     22 H2           5.4900     0.0060    -1.1910 ha         1 F4J       0.137000
     23 H3           0.8510    -0.0260    -2.9470 ha         1 F4J       0.115000
     24 H4           2.7670    -0.0220    -4.5090 ha         1 F4J       0.110000
     25 H5           5.2570    -0.5340    -4.6900 hn         1 F4J       0.280800
     26 H6           7.6170     2.7740    -1.2710 h5         1 F4J       0.002100
     27 H7           7.3130    -0.6750    -6.0280 hn         1 F4J       0.124700
     28 H8           9.7250    -0.0980    -6.6910 h5         1 F4J       0.031800
@<TRIPOS>BOND
     1     1     2 2   
     2     2     3 1   
     3     2     7 1   
     4     3     4 2   
     5     4     5 1   
     6     4    21 1   
     7     5     6 ar  
     8     5     7 ar  
     9     6    10 ar  
    10     6    22 1   
    11     7     8 ar  
    12     8     9 ar  
    13     8    23 1   
    14     9    10 ar  
    15     9    24 1   
    16    10    11 1   
    17    11    12 1   
    18    11    25 1   
    19    12    13 ar  
    20    12    16 ar  
    21    13    14 ar  
    22    14    15 ar  
    23    14    26 1   
    24    15    20 ar  
    25    16    17 1   
    26    16    20 ar  
    27    17    18 1   
    28    17    27 1   
    29    18    19 2   
    30    18    28 1   
    31    19    20 1   
@<TRIPOS>SUBSTRUCTURE
     1 F4J         1 TEMP              0 ****  ****    0 ROOT
