@<TRIPOS>MOLECULE
molecule
   24    25     1     0     0
SMALL
bcc


@<TRIPOS>ATOM
      1 C10          0.0000     0.0000     0.0000 cc         1 F4K      -0.155300
      2 C13          0.6640    -0.0010     2.1170 cc         1 F4K      -0.155300
      3 C03         -4.4040     0.0150     2.5460 ca         1 F4K      -0.105300
      4 C04         -3.3870     0.0090     3.4830 ca         1 F4K      -0.080500
      5 C05         -2.0680     0.0030     3.0710 ca         1 F4K      -0.158000
      6 C06         -1.7650     0.0050     1.7170 ca         1 F4K       0.028800
      7 C07         -2.7880     0.0110     0.7790 ca         1 F4K      -0.158000
      8 C08         -4.1060     0.0110     1.1960 ca         1 F4K      -0.080500
      9 C11          1.3480     0.0000     0.0000 cd         1 F4K      -0.197500
     10 C12          1.7710     0.0000     1.3450 cd         1 F4K      -0.197500
     11 N09         -0.4280    -0.0010     1.2970 na         1 F4K       0.028800
     12 O01         -6.2910     1.3710     3.1430 oh         1 F4K      -0.603800
     13 H1          -0.6350     0.0000    -0.8780 h4         1 F4K       0.167000
     14 H2           0.6460    -0.0010     3.2000 h4         1 F4K       0.167000
     15 H3          -5.9250    -0.4910     3.9480 h1         1 F4K       0.025700
     16 H4          -6.4540    -0.4840     2.2600 h1         1 F4K       0.025700
     17 H5          -3.6250     0.0070     4.5400 ha         1 F4K       0.138500
     18 H6          -1.2720    -0.0020     3.8050 ha         1 F4K       0.140000
     19 H7          -2.5540     0.0100    -0.2790 ha         1 F4K       0.140000
     20 H8          -4.9050     0.0160     0.4650 ha         1 F4K       0.138500
     21 H9           1.9890     0.0000    -0.8730 ha         1 F4K       0.150000
     22 H10          2.7960     0.0000     1.6950 ha         1 F4K       0.150000
     23 H11         -7.1900     1.3740     3.4250 ho         1 F4K       0.402000
     24 C02         -5.8420     0.0220     2.9970 c3         1 F4K       0.189700
@<TRIPOS>BOND
     1     9     1 2
     2     9    10 1
     3     1    11 1
     4    10     2 2
     5    11     2 1
     6    11     6 1
     7     7     6 ar
     8     7     8 ar
     9     6     5 ar
    10     8     3 ar
    11     5     4 ar
    12     3     4 ar
    13     3    24 1
    14    24    12 1
    15     1    13 1
    16     2    14 1
    17    24    15 1
    18    24    16 1
    19     4    17 1
    20     5    18 1
    21     7    19 1
    22     8    20 1
    23     9    21 1
    24    10    22 1
    25    12    23 1
@<TRIPOS>SUBSTRUCTURE
     1 F4K         1 TEMP              0 ****  ****    0 ROOT
