@<TRIPOS>MOLECULE
F4N
   41    44     1     0     0
SMALL
bcc


@<TRIPOS>ATOM
      1 O11          0.0000     0.0000     0.0000 o          1 F4N      -0.853000
      2 C7           4.2990     0.7180    -0.5880 c3         1 F4N      -0.165000
      3 C1           3.2620     1.6620    -1.1380 ca         1 F4N       0.092000
      4 C2           3.6530     2.7720    -1.8650 ca         1 F4N      -0.154000
      5 C3           2.7010     3.6380    -2.3690 ca         1 F4N       0.046000
      6 C4           1.3580     3.3950    -2.1470 ca         1 F4N      -0.447000
      7 C5           0.9670     2.2860    -1.4200 ca         1 F4N       0.109000
      8 C6           1.9190     1.4170    -0.9200 ca         1 F4N      -0.628000
      9 O22         -0.8440     4.1100    -2.4910 o          1 F4N      -0.728700
     10 O21          0.6830     5.3010    -3.3260 o          1 F4N      -0.728700
     11 S9           1.4200     0.0000     0.0000 s6         1 F4N       2.415000
     12 O10          2.1980     0.0000     1.1900 o          1 F4N      -0.853000
     13 N12          1.8880    -1.3340    -0.8630 n3         1 F4N      -0.446000
     14 C13          3.0670    -2.0980    -0.4490 c3         1 F4N      -0.062000
     15 N14          1.1540    -1.7330    -1.9880 n2         1 F4N       0.048000
     16 C15          1.5210    -2.7800    -2.6660 c2         1 F4N      -0.442000
     17 C17          0.7530    -3.1970    -3.8440 c3         1 F4N      -0.428000
     18 C16         -0.3690    -2.5800    -4.3580 c2         1 F4N      -0.048000
     19 N20         -0.7670    -3.2620    -5.4280 n2         1 F4N      -0.098000
     20 C19          0.0490    -4.2910    -5.6300 c2         1 F4N      -0.202000
     21 N18          1.0160    -4.2770    -4.6590 na         1 F4N       0.597000
     22 C23          1.9920    -5.2310    -4.6380 c2         1 F4N      -0.217000
     23 C24          2.0220    -6.2030    -5.5750 c2         1 F4N      -0.113000
     24 Br2          3.3830    -7.5150    -5.5280 br         1 F4N       0.064000
     25 C25          1.0470    -6.2430    -6.5850 c2         1 F4N      -0.096000
     26 C26          0.0640    -5.3020    -6.6100 c2         1 F4N      -0.028000
     27 H1           5.2530     1.2280    -0.5210 hc         1 F4N       0.085333
     28 H2           4.3930    -0.1380    -1.2450 hc         1 F4N       0.085333
     29 H3           3.9980     0.3850     0.3980 hc         1 F4N       0.085333
     30 H4           4.7050     2.9630    -2.0390 ha         1 F4N       0.124000
     31 H5           3.0070     4.5070    -2.9380 ha         1 F4N       0.131000
     32 H6          -0.0850     2.0950    -1.2470 ha         1 F4N       0.157000
     33 H7           3.8050    -2.0820    -1.2430 h1         1 F4N       0.064333
     34 H8           3.4890    -1.6560     0.4450 h1         1 F4N       0.064333
     35 H9           2.7800    -3.1230    -0.2440 h1         1 F4N       0.064333
     36 H10          0.5810    -3.3170    -2.6250 DU         1 F4N       0.341000
     37 H11         -0.8430    -1.6900    -3.9610 h4         1 F4N       0.162000
     38 H12          2.7490    -5.2080    -3.8630 h4         1 F4N       0.171000
     39 H13          1.0720    -7.0230    -7.3360 ha         1 F4N       0.131000
     40 H14         -0.6930    -5.3230    -7.3850 ha         1 F4N       0.134000
     41 N8           0.3390     4.3230    -2.6860 no         1 F4N       1.569400
@<TRIPOS>BOND
     1     1    11 1
     2     2     3 1
     3     2    27 1
     4     2    28 1
     5     2    29 1
     6     3     4 1
     7     3     8 1
     8     4     5 1
     9     4    30 1
    10     5     6 1
    11     5    31 1
    12     6     7 1
    13     6    41 1
    14     7     8 1
    15     7    32 1
    16     8    11 1
    17     9    41 2
    18    10    41 2
    19    11    12 1
    20    11    13 1
    21    13    14 1
    22    13    15 1
    23    14    33 1
    24    14    34 1
    25    14    35 1
    26    15    16 1
    27    16    17 1
    28    16    36 1
    29    17    18 1
    30    17    21 1
    31    17    36 1
    32    18    19 1
    33    18    37 1
    34    19    20 1
    35    20    21 1
    36    20    26 1
    37    21    22 1
    38    22    23 1
    39    22    38 1
    40    23    24 1
    41    23    25 1
    42    25    26 1
    43    25    39 1
    44    26    40 1
@<TRIPOS>SUBSTRUCTURE
     1 F4N         1 TEMP              0 ****  ****    0 ROOT
