@<TRIPOS>MOLECULE
molecule
   47    50     1     0     0
SMALL
bcc


@<TRIPOS>ATOM
      1 C12          0.0000     0.0000     0.0000 ca         1 F4P      -0.088750
      2 C16         -0.0030     0.0010     2.3960 ca         1 F4P      -0.088750
      3 C17         -3.1270    -2.1780     0.3810 ca         1 F4P      -0.088750
      4 C21         -2.7370    -1.9050     2.7290 ca         1 F4P      -0.088750
      5 C13          1.3820     0.0000     0.0000 ca         1 F4P      -0.170000
      6 C15          1.3790     0.0000     2.3980 ca         1 F4P      -0.170000
      7 C18         -3.5880    -3.4610     0.6050 ca         1 F4P      -0.170000
      8 C20         -3.1970    -3.1880     2.9550 ca         1 F4P      -0.170000
      9 C5          -2.5760     6.9010     3.4780 cc         1 F4P       0.597900
     10 C7          -4.7100     6.5670     3.5540 cd         1 F4P       0.516400
     11 C11         -0.6920    -0.0000     1.1980 ca         1 F4P      -0.102300
     12 C8          -2.7020    -1.4000     1.4420 ca         1 F4P      -0.102300
     13 C14          2.0740     0.0000     1.2000 ca         1 F4P       0.136900
     14 C19         -3.6230    -3.9680     1.8940 ca         1 F4P       0.136900
     15 C23         -4.6290     1.7050     3.5110 c3         1 F4P       0.088000
     16 C25         -2.5250     3.0870     3.3240 c3         1 F4P       0.088000
     17 C22         -4.1590     0.9140     2.2850 c3         1 F4P       0.141300
     18 C26         -2.1370     2.2420     2.1060 c3         1 F4P       0.141300
     19 C9          -2.1990    -0.0000     1.1960 c3         1 F4P       0.271100
     20 N6          -3.7780     7.4800     3.5010 nc         1 F4P      -0.758000
     21 N4          -2.7270     5.6040     3.5170 nd         1 F4P      -0.567800
     22 N2          -4.1080     5.3570     3.5680 n          1 F4P      -0.056500
     23 N24         -3.9850     3.0270     3.4900 n          1 F4P      -0.472800
     24 N10         -2.6900     0.8890     2.2560 n3         1 F4P      -0.734600
     25 O3          -5.9160     4.0840     3.7800 o          1 F4P      -0.620100
     26 F28          3.4240    -0.0000     1.2020 f          1 F4P      -0.139900
     27 F27         -4.0740    -5.2220     2.1140 f          1 F4P      -0.139900
     28 H12         -0.5410    -0.0000    -0.9380 ha         1 F4P       0.144250
     29 H16         -0.5460     0.0010     3.3330 ha         1 F4P       0.144250
     30 H17         -3.0990    -1.7810    -0.6270 ha         1 F4P       0.144250
     31 H21         -2.4030    -1.2940     3.5590 ha         1 F4P       0.144250
     32 H13          1.9230    -0.0000    -0.9380 ha         1 F4P       0.147000
     33 H15          1.9190     0.0000     3.3380 ha         1 F4P       0.147000
     34 H18         -3.9210    -4.0700    -0.2260 ha         1 F4P       0.147000
     35 H20         -3.2240    -3.5830     3.9640 ha         1 F4P       0.147000
     36 H7          -5.7780     6.7480     3.5830 h5         1 F4P       0.096100
     37 H23         -5.7050     1.8250     3.4740 h1         1 F4P       0.083450
     38 H23A        -4.3460     1.1770     4.4140 h1         1 F4P       0.083450
     39 H25         -2.0420     2.6890     4.2100 h1         1 F4P       0.083450
     40 H25A        -2.2190     4.1140     3.1660 h1         1 F4P       0.083450
     41 H22         -4.5290     1.3910     1.3850 h1         1 F4P       0.049450
     42 H22A        -4.5360    -0.1000     2.3440 h1         1 F4P       0.049450
     43 H26         -2.5390     2.6980     1.2100 h1         1 F4P       0.049450
     44 H26A        -1.0580     2.1850     2.0370 h1         1 F4P       0.049450
     45 H9          -2.5590     0.3490     0.2360 h1         1 F4P       0.038700
     46 C1          -4.7140     4.1540     3.6180 c          1 F4P       0.696900
     47 H5          -1.6270     7.4220     3.4340 h5         1 F4P       0.084100
@<TRIPOS>BOND
     1     1     5 ar
     2     1    11 ar
     3     2     6 ar
     4     2    11 ar
     5     3     7 ar
     6     3    12 ar
     7     4     8 ar
     8     4    12 ar
     9     5    13 ar
    10     6    13 ar
    11     7    14 ar
    12     8    14 ar
    13     9    20 1
    14     9    21 2
    15    10    20 2
    16    10    22 1
    17    11    19 1
    18    12    19 1
    19    13    26 1
    20    14    27 1
    21    46    22 1
    22    46    23 1
    23    46    25 2
    24    15    17 1
    25    15    23 1
    26    16    18 1
    27    16    23 1
    28    17    24 1
    29    18    24 1
    30    19    24 1
    31    21    22 1
    32     1    28 1
    33     2    29 1
    34     3    30 1
    35     4    31 1
    36     5    32 1
    37     6    33 1
    38     7    34 1
    39     8    35 1
    40     9    47 1
    41    10    36 1
    42    15    37 1
    43    15    38 1
    44    16    39 1
    45    16    40 1
    46    17    41 1
    47    17    42 1
    48    18    43 1
    49    18    44 1
    50    19    45 1
@<TRIPOS>SUBSTRUCTURE
     1 F4P         1 TEMP              0 ****  ****    0 ROOT
