@<TRIPOS>MOLECULE
F4P
   47    50     1     0     0
SMALL
bcc


@<TRIPOS>ATOM
      1 C12          0.0000     0.0000     0.0000 ca         1 F4P      -0.063750
      2 C16         -0.0030     0.0010     2.3960 ca         1 F4P      -0.063750
      3 C17         -3.1270    -2.1780     0.3810 ca         1 F4P      -0.063750
      4 C21         -2.7370    -1.9050     2.7290 ca         1 F4P      -0.063750
      5 C13          1.3820     0.0000     0.0000 ca         1 F4P      -0.133500
      6 C15          1.3790     0.0000     2.3980 ca         1 F4P      -0.133500
      7 C18         -3.5880    -3.4610     0.6050 ca         1 F4P      -0.133500
      8 C20         -3.1970    -3.1880     2.9550 ca         1 F4P      -0.133500
      9 C5          -2.5760     6.9010     3.4780 cc         1 F4P       0.634900
     10 C7          -4.7100     6.5670     3.5540 cd         1 F4P       0.377400
     11 C11         -0.6920    -0.0000     1.1980 ca         1 F4P      -0.111800
     12 C8          -2.7020    -1.4000     1.4420 ca         1 F4P      -0.111800
     13 C14          2.0740     0.0000     1.2000 ca         1 F4P       0.108900
     14 C19         -3.6230    -3.9680     1.8940 ca         1 F4P       0.108900
     15 C23         -4.6290     1.7050     3.5110 c3         1 F4P      -0.005000
     16 C25         -2.5250     3.0870     3.3240 c3         1 F4P      -0.005000
     17 C22         -4.1590     0.9140     2.2850 c3         1 F4P       0.129300
     18 C26         -2.1370     2.2420     2.1060 c3         1 F4P       0.129300
     19 C9          -2.1990    -0.0000     1.1960 c3         1 F4P       0.255100
     20 N6          -3.7780     7.4800     3.5010 nc         1 F4P      -0.697000
     21 N4          -2.7270     5.6040     3.5170 nd         1 F4P      -0.683800
     22 N2          -4.1080     5.3570     3.5680 n          1 F4P       0.353500
     23 N24         -3.9850     3.0270     3.4900 n          1 F4P      -0.108800
     24 N10         -2.6900     0.8890     2.2560 n3         1 F4P      -0.541600
     25 O3          -5.9160     4.0840     3.7800 o          1 F4P      -0.665100
     26 F28          3.4240    -0.0000     1.2020 f          1 F4P      -0.127400
     27 F27         -4.0740    -5.2220     2.1140 f          1 F4P      -0.127400
     28 H12         -0.5410    -0.0000    -0.9380 ha         1 F4P       0.116750
     29 H16         -0.5460     0.0010     3.3330 ha         1 F4P       0.116750
     30 H17         -3.0990    -1.7810    -0.6270 ha         1 F4P       0.116750
     31 H21         -2.4030    -1.2940     3.5590 ha         1 F4P       0.116750
     32 H13          1.9230    -0.0000    -0.9380 ha         1 F4P       0.120500
     33 H15          1.9190     0.0000     3.3380 ha         1 F4P       0.120500
     34 H18         -3.9210    -4.0700    -0.2260 ha         1 F4P       0.120500
     35 H20         -3.2240    -3.5830     3.9640 ha         1 F4P       0.120500
     36 H7          -5.7780     6.7480     3.5830 h5         1 F4P       0.045100
     37 H23         -5.7050     1.8250     3.4740 h1         1 F4P       0.061700
     38 H23A        -4.3460     1.1770     4.4140 h1         1 F4P       0.061700
     39 H25         -2.0420     2.6890     4.2100 h1         1 F4P       0.061700
     40 H25A        -2.2190     4.1140     3.1660 h1         1 F4P       0.061700
     41 H22         -4.5290     1.3910     1.3850 h1         1 F4P       0.025450
     42 H22A        -4.5360    -0.1000     2.3440 h1         1 F4P       0.025450
     43 H26         -2.5390     2.6980     1.2100 h1         1 F4P       0.025450
     44 H26A        -1.0580     2.1850     2.0370 h1         1 F4P       0.025450
     45 H9          -2.5590     0.3490     0.2360 h1         1 F4P       0.018700
     46 C1          -4.7140     4.1540     3.6180 c          1 F4P       0.487900
     47 H5          -1.6270     7.4220     3.4340 h5         1 F4P       0.027100
@<TRIPOS>BOND
     1     1     5 ar  
     2     1    11 ar  
     3     1    28 1   
     4     2     6 ar  
     5     2    11 ar  
     6     2    29 1   
     7     3     7 ar  
     8     3    12 ar  
     9     3    30 1   
    10     4     8 ar  
    11     4    12 ar  
    12     4    31 1   
    13     5    13 ar  
    14     5    32 1   
    15     6    13 ar  
    16     6    33 1   
    17     7    14 ar  
    18     7    34 1   
    19     8    14 ar  
    20     8    35 1   
    21     9    20 1   
    22     9    21 2   
    23     9    47 1   
    24    10    20 2   
    25    10    22 1   
    26    10    36 1   
    27    11    19 1   
    28    12    19 1   
    29    13    26 1   
    30    14    27 1   
    31    15    17 1   
    32    15    23 1   
    33    15    37 1   
    34    15    38 1   
    35    16    18 1   
    36    16    23 1   
    37    16    39 1   
    38    16    40 1   
    39    17    24 1   
    40    17    41 1   
    41    17    42 1   
    42    18    24 1   
    43    18    43 1   
    44    18    44 1   
    45    19    24 1   
    46    19    45 1   
    47    21    22 1   
    48    22    46 1   
    49    23    46 1   
    50    25    46 2   
@<TRIPOS>SUBSTRUCTURE
     1 F4P         1 TEMP              0 ****  ****    0 ROOT
