@<TRIPOS>MOLECULE
F4T
   55    57     1     0     0
SMALL
bcc


@<TRIPOS>ATOM
      1 OAE          0.0000     0.0000     0.0000 o          1 F4T      -0.585300
      2 SBC          1.4200     0.0000     0.0000 sy         1 F4T       1.041200
      3 OAD          2.1970     0.0000     1.1900 o          1 F4T      -0.585300
      4 CAY          1.9190    -1.4180    -0.9200 ca         1 F4T      -0.204500
      5 CAJ          3.1680    -1.9720    -0.7100 ca         1 F4T       0.049500
      6 CAG          3.5610    -3.0840    -1.4300 ca         1 F4T      -0.210000
      7 CAW          2.7020    -3.6430    -2.3650 ca         1 F4T       0.203100
      8 OAU          3.0890    -4.7330    -3.0780 os         1 F4T      -0.304900
      9 CAB          4.3910    -5.2550    -2.8110 c3         1 F4T       0.245700
     10 CAF          1.4490    -3.0840    -2.5740 ca         1 F4T      -0.210000
     11 CAI          1.0580    -1.9760    -1.8470 ca         1 F4T       0.049500
     12 NAS          1.8880     1.3340    -0.8630 nu         1 F4T      -0.381500
     13 CAZ          1.3880     1.5430    -2.1540 ca         1 F4T       0.078600
     14 CAL          0.0900     1.1840    -2.4590 ca         1 F4T      -0.120000
     15 CAX         -0.4070     1.3950    -3.7500 ca         1 F4T      -0.120600
     16 CAV         -1.7910     1.0130    -4.0800 c          1 F4T       0.712700
     17 OAT         -2.2680     1.2160    -5.3240 os         1 F4T      -0.419900
     18 CAA         -3.6410     0.8170    -5.5780 c3         1 F4T       0.271700
     19 OAC         -2.5030     0.5150    -3.2310 o          1 F4T      -0.574000
     20 CAH          0.4130     1.9680    -4.7260 ca         1 F4T      -0.071000
     21 CAK          1.7070     2.3240    -4.4170 ca         1 F4T      -0.130000
     22 CBA          2.2010     2.1210    -3.1340 ca         1 F4T      -0.004400
     23 NBB          3.5080     2.4890    -2.8250 nh         1 F4T      -0.393000
     24 CAQ          3.6590     3.9570    -2.8240 c3         1 F4T       0.145300
     25 CAR          4.4230     1.8070    -3.6310 c3         1 F4T       0.145300
     26 CAP          5.8770     2.0260    -3.1570 c3         1 F4T      -0.032400
     27 CAN          6.3390     3.3900    -3.6020 c3         1 F4T      -0.026900
     28 CAM          6.1070     4.4740    -2.5310 c3         1 F4T      -0.026900
     29 CAO          4.7420     4.3160    -1.8390 c3         1 F4T      -0.032400
     30 H1           3.8380    -1.5350     0.0200 ha         1 F4T       0.125500
     31 H2           4.5400    -3.5180    -1.2650 ha         1 F4T       0.125000
     32 H3           4.5710    -6.1180    -3.4410 h1         1 F4T       0.000033
     33 H4           5.1350    -4.4950    -3.0190 h1         1 F4T       0.000033
     34 H5           4.4560    -5.5480    -1.7700 h1         1 F4T       0.000033
     35 H6           0.7750    -3.5200    -3.3010 ha         1 F4T       0.125000
     36 H7           0.0810    -1.5390    -2.0090 ha         1 F4T       0.125500
     37 H8           2.4840     2.0180    -0.4400 hn         1 F4T       0.357800
     38 H9          -0.5690     0.8220    -1.6780 ha         1 F4T       0.196000
     39 H10         -4.3040     1.3640    -4.9190 h1         1 F4T       0.000700
     40 H11         -3.8950     1.0350    -6.6080 h1         1 F4T       0.000700
     41 H12         -3.7470    -0.2460    -5.3970 h1         1 F4T       0.000700
     42 H13          0.0310     2.1300    -5.7270 ha         1 F4T       0.118000
     43 H14          2.3400     2.7700    -5.1750 ha         1 F4T       0.114000
     44 H15          3.9390     4.2960    -3.8150 h1         1 F4T       0.014950
     45 H16          2.7260     4.4190    -2.5250 h1         1 F4T       0.014950
     46 H17          4.1990     0.7480    -3.5980 h1         1 F4T       0.014950
     47 H18          4.3280     2.1620    -4.6500 h1         1 F4T       0.014950
     48 H19          5.9180     1.9660    -2.0760 hc         1 F4T       0.023950
     49 H20          6.5170     1.2680    -3.5920 hc         1 F4T       0.023950
     50 H21          7.3980     3.3430    -3.8260 hc         1 F4T       0.012700
     51 H22          5.7980     3.6660    -4.4990 hc         1 F4T       0.012700
     52 H23          6.8890     4.4020    -1.7840 hc         1 F4T       0.012700
     53 H24          6.1510     5.4480    -3.0020 hc         1 F4T       0.012700
     54 H25          4.8140     3.5330    -1.0940 hc         1 F4T       0.023950
     55 H26          4.4830     5.2490    -1.3550 hc         1 F4T       0.023950
@<TRIPOS>BOND
     1     1     2 2   
     2     2     3 2   
     3     2     4 1   
     4     2    12 1   
     5     4     5 ar  
     6     4    11 ar  
     7     5     6 ar  
     8     5    30 1   
     9     6     7 ar  
    10     6    31 1   
    11     7     8 1   
    12     7    10 ar  
    13     8     9 1   
    14     9    32 1   
    15     9    33 1   
    16     9    34 1   
    17    10    11 ar  
    18    10    35 1   
    19    11    36 1   
    20    12    13 1   
    21    12    37 1   
    22    13    14 ar  
    23    13    22 ar  
    24    14    15 ar  
    25    14    38 1   
    26    15    16 1   
    27    15    20 ar  
    28    16    17 1   
    29    16    19 2   
    30    17    18 1   
    31    18    39 1   
    32    18    40 1   
    33    18    41 1   
    34    20    21 ar  
    35    20    42 1   
    36    21    22 ar  
    37    21    43 1   
    38    22    23 1   
    39    23    24 1   
    40    23    25 1   
    41    24    29 1   
    42    24    44 1   
    43    24    45 1   
    44    25    26 1   
    45    25    46 1   
    46    25    47 1   
    47    26    27 1   
    48    26    48 1   
    49    26    49 1   
    50    27    28 1   
    51    27    50 1   
    52    27    51 1   
    53    28    29 1   
    54    28    52 1   
    55    28    53 1   
    56    29    54 1   
    57    29    55 1   
@<TRIPOS>SUBSTRUCTURE
     1 F4T         1 TEMP              0 ****  ****    0 ROOT
