@<TRIPOS>MOLECULE
F4W
   29    31     1     0     0
SMALL
bcc


@<TRIPOS>ATOM
      1 OAH          0.0000     0.0000     0.0000 o          1 F4W      -0.901800
      2 CAQ          1.2090     0.0000     0.0000 c          1 F4W       0.978600
      3 OAR          1.8790     0.0000     1.1620 o          1 F4W      -0.901800
      4 CAP          1.9630    -0.0070    -1.3040 c3         1 F4W      -0.127400
      5 CAO          0.9690    -0.0120    -2.4680 c3         1 F4W      -0.052700
      6 CAN          1.7230    -0.0190    -3.7720 cc         1 F4W       0.310900
      7 NAM          3.0230    -0.0190    -3.7490 nd         1 F4W      -0.503100
      8 CAL          3.7500    -0.0250    -4.8900 cd         1 F4W       0.311300
      9 SAK          5.4870    -0.0250    -5.1430 ss         1 F4W      -0.227800
     10 CAJ          5.3070    -0.0330    -6.8960 cd         1 F4W      -0.059400
     11 CAI          6.2010    -0.0380    -8.1330 c3         1 F4W       0.094900
     12 CAB          5.2810     0.4050    -9.2870 c3         1 F4W      -0.035400
     13 CAC          3.9000    -0.0440    -8.7710 c3         1 F4W       0.058900
     14 CAD          4.0280    -0.0370    -7.2480 cc         1 F4W      -0.038300
     15 CAE          3.1020    -0.0310    -6.1140 cc         1 F4W      -0.265600
     16 CAF          1.6720    -0.0310    -6.1200 c          1 F4W       0.626100
     17 OAA          1.0530    -0.0380    -7.1700 o          1 F4W      -0.708500
     18 NAG          1.0250    -0.0300    -4.9360 ns         1 F4W       0.015600
     19 H2           2.5850    -0.8920    -1.3570 hc         1 F4W       0.022700
     20 H3           2.5860     0.8770    -1.3650 hc         1 F4W       0.022700
     21 H4           0.3470     0.8730    -2.4150 hc         1 F4W       0.041700
     22 H5           0.3450    -0.8960    -2.4060 hc         1 F4W       0.041700
     23 H7           6.5810    -1.0350    -8.3170 hc         1 F4W       0.013200
     24 H8           7.0150     0.6660    -8.0100 hc         1 F4W       0.013200
     25 H9           5.5360    -0.1130   -10.2040 hc         1 F4W       0.016200
     26 H10          5.3140     1.4800    -9.4160 hc         1 F4W       0.016200
     27 H11          3.1360     0.6560    -9.0860 hc         1 F4W       0.026200
     28 H12          3.6740    -1.0430    -9.1240 hc         1 F4W       0.026200
     29 H6           0.0240    -0.0370    -4.9170 hn         1 F4W       0.185500
@<TRIPOS>BOND
     1     1     2 1   
     2     2     3 1   
     3     2     4 1   
     4     4     5 1   
     5     4    19 1   
     6     4    20 1   
     7     5     6 1   
     8     5    21 1   
     9     5    22 1   
    10     6     7 2   
    11     6    18 1   
    12     7     8 1   
    13     8     9 1   
    14     8    15 2   
    15     9    10 1   
    16    10    11 1   
    17    10    14 2   
    18    11    12 1   
    19    11    23 1   
    20    11    24 1   
    21    12    13 1   
    22    12    25 1   
    23    12    26 1   
    24    13    14 1   
    25    13    27 1   
    26    13    28 1   
    27    14    15 1   
    28    15    16 1   
    29    16    17 2   
    30    16    18 1   
    31    18    29 1   
@<TRIPOS>SUBSTRUCTURE
     1 F4W         1 TEMP              0 ****  ****    0 ROOT
