@<TRIPOS>MOLECULE
molecule
   12    12     1     0     0
SMALL
bcc


@<TRIPOS>ATOM
      1 C01          0.0000     0.0000     0.0000 ca         1 F4Z      -0.057000
      2 C02          1.3850     0.0000     0.0000 ca         1 F4Z      -0.105900
      3 C03          2.0620     0.0000     1.2140 ca         1 F4Z       0.667600
      4 O04          3.4180    -0.0000     1.2260 oh         1 F4Z      -0.599300
      5 N05          1.3970     0.0000     2.3560 nb         1 F4Z      -0.723000
      6 C06          0.0770     0.0000     2.3900 ca         1 F4Z       0.552300
      7 C07         -0.6620     0.0060     1.2210 ca         1 F4Z      -0.105900
      8 Cl8         -2.3970     0.0070     1.2790 cl         1 F4Z      -0.063400
      9 Cl9         -0.7420     0.0010     3.9210 cl         1 F4Z      -0.123000
     10 Cl1          2.2640    -0.0020    -1.4980 cl         1 F4Z      -0.061400
     11 H1          -0.5540     0.0020    -0.9310 ha         1 F4Z       0.174000
     12 H2           3.7280    -0.7090     1.7650 ho         1 F4Z       0.444000
@<TRIPOS>BOND
     1     9     6 1
     2     6     5 ar
     3     6     7 ar
     4     8     7 1
     5     5     3 ar
     6     7     1 ar
     7     3     4 1
     8     3     2 ar
     9     1     2 ar
    10     2    10 1
    11     1    11 1
    12     4    12 1
@<TRIPOS>SUBSTRUCTURE
     1 F4Z         1 TEMP              0 ****  ****    0 ROOT
