@<TRIPOS>MOLECULE
F50
    9     8     1     0     0
SMALL
bcc


@<TRIPOS>ATOM
      1 C          -0.0920   -0.0710    0.0550 c         1 F50      0.599100
      2 OX1        -0.3030    0.4980    2.2400 oh        1 F50     -0.367000
      3 O           1.0380   -0.4390    0.3670 o         1 F50     -0.514000
      4 OXT        -0.9140    0.3230    1.1160 os        1 F50     -0.227100
      5 CH3        -0.7680   -0.0090   -1.2620 c3        1 F50     -0.154100
      6 HX1         0.1120   -0.3530    2.5180 ho        1 F50      0.413000
      7 HH31       -1.8740    0.0910   -1.1380 hc        1 F50      0.083033
      8 HH32       -0.3800    0.8800   -1.8210 hc        1 F50      0.083033
      9 HH33       -0.5350   -0.9350   -1.8420 hc        1 F50      0.083033
@<TRIPOS>BOND
     1    1    3 2   
     2    1    4 1   
     3    1    5 1   
     4    2    4 1   
     5    2    6 1   
     6    5    7 1   
     7    5    8 1   
     8    5    9 1   
@<TRIPOS>SUBSTRUCTURE
     1 F50         1 TEMP              0 ****  ****    0 ROOT
