@<TRIPOS>MOLECULE
molecule
    9     8     1     0     0
SMALL
bcc


@<TRIPOS>ATOM
      1 C            0.0000     0.0000     0.0000 c          1 F50       0.624100
      2 OX1         -0.0400     0.0000     2.2540 oh         1 F50      -0.385000
      3 O            1.2080     0.0000     0.0000 o          1 F50      -0.508000
      4 OXT         -0.6710     0.0000     1.1630 os         1 F50      -0.253100
      5 CH3         -0.7550     0.0000    -1.3040 c3         1 F50      -0.130100
      6 HX1         -0.6520     0.0000     2.9710 ho         1 F50       0.432000
      7 HH31        -1.3770    -0.8840    -1.3610 hc         1 F50       0.073367
      8 HH32        -0.0510    -0.0000    -2.1280 hc         1 F50       0.073367
      9 HH33        -1.3770     0.8850    -1.3610 hc         1 F50       0.073367
@<TRIPOS>BOND
     1     1     3 2
     2     1     4 1
     3     1     5 1
     4     2     4 1
     5     2     6 1
     6     5     7 1
     7     5     8 1
     8     5     9 1
@<TRIPOS>SUBSTRUCTURE
     1 F50         1 TEMP              0 ****  ****    0 ROOT
