@<TRIPOS>MOLECULE
molecule
   41    44     1     0     0
SMALL
bcc


@<TRIPOS>ATOM
      1 N10          0.0000     0.0000     0.0000 nb         1 F51      -0.705000
      2 C11          1.3120     0.0000     0.0000 ca         1 F51       0.362900
      3 C12          2.0150     0.0000     1.2200 ca         1 F51       0.292300
      4 C02          3.3640    -0.0010     3.6500 ca         1 F51      -0.203600
      5 C03          1.9760    -0.0020     3.6990 ca         1 F51      -0.008600
      6 C04          1.2510    -0.0020     4.9870 c          1 F51       0.878200
      7 C07          1.2640    -0.0020     2.4240 ca         1 F51      -0.126300
      8 C08         -0.1340    -0.0020     2.3450 ca         1 F51      -0.177300
      9 C09         -0.7190    -0.0010     1.1130 ca         1 F51       0.362200
     10 C14          4.0090    -0.0020     2.4030 cp         1 F51       0.488800
     11 C15          5.4900    -0.0010     2.3650 cp         1 F51      -0.117500
     12 C16          6.2130     0.6890     3.3390 ca         1 F51      -0.106500
     13 C17          7.5890     0.6890     3.3040 ca         1 F51      -0.130500
     14 C18          8.2620     0.0010     2.2950 cp         1 F51      -0.052000
     15 C19          9.7440     0.0000     2.2570 cp         1 F51      -0.017000
     16 C20         10.4190    -0.6870     1.2500 ca         1 F51      -0.123500
     17 C21         11.7990    -0.6820     1.2200 ca         1 F51      -0.129500
     18 C22         12.5120     0.0010     2.1890 ca         1 F51      -0.140000
     19 C23         11.8480     0.6850     3.1910 ca         1 F51      -0.129500
     20 C24         10.4690     0.6930     3.2270 ca         1 F51      -0.123500
     21 C25          7.5400    -0.6890     1.3200 ca         1 F51      -0.130500
     22 C26          6.1630    -0.6940     1.3580 ca         1 F51      -0.106500
     23 N13          3.3460    -0.0010     1.2650 nb         1 F51      -0.715000
     24 O05          0.9220    -1.1680     5.5750 o          1 F51      -0.816300
     25 O06          0.9530     1.0500     5.5160 o          1 F51      -0.816300
     26 H1           1.8540     0.0010    -0.9380 h4         1 F51       0.021100
     27 H2           3.5820    -0.4310     5.7240 hc         1 F51       0.049033
     28 H3           4.4380     1.0180     5.1790 hc         1 F51       0.049033
     29 H4           5.0710    -0.5850     4.7800 hc         1 F51       0.049033
     30 H5          -0.7390    -0.0020     3.2440 ha         1 F51       0.168000
     31 H6          -1.8000    -0.0010     1.0420 h4         1 F51       0.008100
     32 H7           5.6910     1.2240     4.1230 ha         1 F51       0.153000
     33 H8           8.1500     1.2250     4.0600 ha         1 F51       0.125000
     34 H9           9.8620    -1.2230     0.4910 ha         1 F51       0.134500
     35 H10         12.3250    -1.2160     0.4380 ha         1 F51       0.123500
     36 H11         13.5950    -0.0000     2.1630 ha         1 F51       0.120000
     37 H12         12.4120     1.2210     3.9450 ha         1 F51       0.123500
     38 H13          9.9500     1.2290     4.0120 ha         1 F51       0.134500
     39 H14          8.0630    -1.2250     0.5370 ha         1 F51       0.125000
     40 H15          5.6030    -1.2290     0.6010 ha         1 F51       0.153000
     41 C01          4.1700     0.0000     4.9230 c3         1 F51      -0.045800
@<TRIPOS>BOND
     1    25     6 1
     2    24     6 1
     3     6     5 1
     4    41     4 1
     5     5     4 ar
     6     5     7 ar
     7     4    10 ar
     8    12    13 ar
     9    12    11 ar
    10     8     7 ar
    11     8     9 ar
    12     7     3 ar
    13    13    14 ar
    14    10    11 1
    15    10    23 ar
    16    11    22 ar
    17    20    19 ar
    18    20    15 ar
    19    19    18 ar
    20     9     1 ar
    21    14    15 1
    22    14    21 ar
    23     3    23 ar
    24     3     2 ar
    25    15    16 ar
    26    22    21 ar
    27    18    17 ar
    28     1     2 ar
    29    16    17 ar
    30     2    26 1
    31    41    27 1
    32    41    28 1
    33    41    29 1
    34     8    30 1
    35     9    31 1
    36    12    32 1
    37    13    33 1
    38    16    34 1
    39    17    35 1
    40    18    36 1
    41    19    37 1
    42    20    38 1
    43    21    39 1
    44    22    40 1
@<TRIPOS>SUBSTRUCTURE
     1 F51         1 TEMP              0 ****  ****    0 ROOT
