@<TRIPOS>MOLECULE
molecule
   18    18     1     0     0
SMALL
bcc


@<TRIPOS>ATOM
      1 O01          0.0000     0.0000     0.0000 o          1 F52      -0.819300
      2 C02          1.3420     0.0000     0.0000 c          1 F52       0.895600
      3 O03          1.9460     0.0000     1.0470 o          1 F52      -0.819300
      4 C04          2.0950     0.0010    -1.3040 c3         1 F52       0.011400
      5 O05          3.5000     0.0010    -1.0430 os         1 F52      -0.260900
      6 C06          4.3290     0.0020    -2.1210 ca         1 F52       0.185100
      7 C07          3.8000     0.0080    -3.4020 ca         1 F52      -0.216000
      8 C08          4.6440     0.0140    -4.4980 ca         1 F52       0.072400
      9 Cl1          3.9830     0.0230    -6.1030 cl         1 F52      -0.108400
     10 C10          6.0170     0.0140    -4.3150 ca         1 F52      -0.028600
     11 Cl2          7.0750     0.0240    -5.6920 cl         1 F52      -0.119400
     12 C12          6.5460     0.0090    -3.0380 ca         1 F52      -0.082000
     13 C13          5.7050     0.0020    -1.9400 ca         1 F52      -0.014600
     14 Cl3          6.3710     0.0010    -0.3370 cl         1 F52      -0.081400
     15 H2           1.8340    -0.8830    -1.8730 h1         1 F52       0.030700
     16 H3           1.8330     0.8860    -1.8720 h1         1 F52       0.030700
     17 H4           2.7270    -0.0010    -3.5460 ha         1 F52       0.172000
     18 H5           7.6200     0.0090    -2.8970 ha         1 F52       0.150000
@<TRIPOS>BOND
     1     9     8 1
     2    11    10 1
     3     8    10 ar
     4     8     7 ar
     5    10    12 ar
     6     3     2 1
     7     7     6 ar
     8     1     2 1
     9     2     4 1
    10    12    13 ar
    11     6    13 ar
    12     6     5 1
    13    13    14 1
    14     4     5 1
    15     4    15 1
    16     4    16 1
    17     7    17 1
    18    12    18 1
@<TRIPOS>SUBSTRUCTURE
     1 F52         1 TEMP              0 ****  ****    0 ROOT
