@<TRIPOS>MOLECULE
F53
   83    86     1     0     0
SMALL
bcc


@<TRIPOS>ATOM
      1 C1           0.0000     0.0000     0.0000 c3         1 F53       0.277700
      2 O1           1.4290     0.0000     0.0000 oh         1 F53      -0.582800
      3 C2          -0.5030     0.0000     1.4200 ca         1 F53      -0.055300
      4 C3          -0.7340     1.1970     2.0720 ca         1 F53      -0.111000
      5 C4          -1.1950     1.1970     3.3750 ca         1 F53      -0.004500
      6 C5          -1.4240     0.0000     4.0280 ca         1 F53      -0.161500
      7 C6          -1.1940    -1.1970     3.3750 ca         1 F53      -0.004500
      8 C7          -0.7370    -1.1970     2.0710 ca         1 F53      -0.111000
      9 O8          -5.4240     6.9850    -3.2780 os         1 F53      -0.413600
     10 S8          -2.0110     0.0000     5.6880 sy         1 F53       1.045200
     11 O9          -1.6310    -1.2490     6.2490 o          1 F53      -0.583800
     12 O10         -1.6320     1.2500     6.2480 o          1 F53      -0.583800
     13 N11         -3.6660     0.0000     5.6250 n3         1 F53      -0.511500
     14 C12         -4.4040    -1.2570     5.7610 c3         1 F53       0.213800
     15 C13         -4.8480    -1.4320     7.2150 c3         1 F53      -0.069700
     16 C14         -3.6170    -1.5860     8.1090 c3         1 F53      -0.040400
     17 C15         -5.6480    -0.2040     7.6550 c3         1 F53      -0.040400
     18 C16         -4.3920     1.2590     5.4300 c3         1 F53       0.168800
     19 C17         -4.6630     1.4660     3.9390 c3         1 F53       0.141100
     20 C18         -6.9490    -0.1290     6.8530 c3         1 F53      -0.008100
     21 O18         -5.5440     0.4440     3.4680 oh         1 F53      -0.580800
     22 C19         -5.3080     2.8360     3.7230 c3         1 F53       0.012700
     23 C20         -2.9270    -2.9170     7.8050 c3         1 F53      -0.008100
     24 N20         -5.4580     3.0850     2.2880 ns         1 F53      -0.167900
     25 C21         -5.5160     4.3500     1.8260 c          1 F53       0.674100
     26 O22         -5.4440     5.2830     2.6010 o          1 F53      -0.639000
     27 O23         -5.6550     4.5790     0.5060 os         1 F53      -0.412900
     28 C24         -5.7100     5.9660     0.0810 c3         1 F53       0.171100
     29 C25         -4.2970     6.4970    -0.2650 c3         1 F53       0.183400
     30 O26         -4.5200     7.5610    -1.2030 os         1 F53      -0.399600
     31 C27         -5.7370     7.3310    -1.9230 c3         1 F53       0.396900
     32 C29         -5.8980     5.6620    -3.5730 c3         1 F53       0.214400
     33 C30         -5.9680     4.9420    -2.2020 c3         1 F53      -0.060400
     34 C31         -6.4330     6.1010    -1.2820 c3         1 F53      -0.123700
     35 C32         -6.6840     2.8620     4.3930 c3         1 F53       0.007900
     36 C33         -8.0480     4.5870     3.1980 ca         1 F53      -0.092000
     37 C34         -8.5830     5.8580     3.1010 ca         1 F53      -0.092500
     38 C35         -8.3390     6.7890     4.0940 ca         1 F53      -0.098000
     39 C36         -7.5600     6.4480     5.1840 ca         1 F53      -0.092500
     40 C37         -7.0240     5.1770     5.2800 ca         1 F53      -0.092000
     41 C38         -7.2680     4.2470     4.2880 ca         1 F53      -0.080300
     42 H1          -0.3610    -0.8840    -0.5110 h1         1 F53      -0.011300
     43 H1A         -0.3610     0.8840    -0.5110 h1         1 F53      -0.011300
     44 HO1          1.7440    -0.1540    -0.8760 ho         1 F53       0.393000
     45 H3          -0.5550     2.1350     1.5610 ha         1 F53       0.114000
     46 H4          -1.3760     2.1360     3.8850 ha         1 F53       0.124500
     47 H6          -1.3750    -2.1350     3.8860 ha         1 F53       0.124500
     48 H7          -0.5560    -2.1360     1.5600 ha         1 F53       0.114000
     49 H12         -5.2740    -1.2370     5.1170 h1         1 F53       0.036700
     50 H12A        -3.7630    -2.0840     5.4780 h1         1 F53       0.036700
     51 H13         -5.4690    -2.3170     7.2990 hc         1 F53       0.034700
     52 H14         -2.9290    -0.7710     7.9200 hc         1 F53       0.021700
     53 H14A        -3.9210    -1.5670     9.1490 hc         1 F53       0.021700
     54 H15         -5.8780    -0.2830     8.7100 hc         1 F53       0.021700
     55 H15A        -5.0630     0.6900     7.4780 hc         1 F53       0.021700
     56 H16         -3.7960     2.0810     5.8070 h1         1 F53       0.065200
     57 H16A        -5.3330     1.2190     5.9660 h1         1 F53       0.065200
     58 H17         -3.7290     1.4170     3.3920 h1         1 F53       0.012700
     59 H18         -6.7300    -0.2390     5.7980 hc         1 F53       0.007867
     60 H18A        -7.4250     0.8280     7.0260 hc         1 F53       0.007867
     61 H18B        -7.6140    -0.9250     7.1690 hc         1 F53       0.007867
     62 HO18        -5.2100     0.0890     2.6600 ho         1 F53       0.389000
     63 H19         -4.6800     3.6030     4.1590 h1         1 F53       0.069700
     64 H20         -1.8560    -2.8020     7.9150 hc         1 F53       0.007867
     65 H20A        -3.2820    -3.6740     8.4940 hc         1 F53       0.007867
     66 H20B        -3.1550    -3.2180     6.7890 hc         1 F53       0.007867
     67 HN20        -5.4950     2.3170     1.6470 hn         1 F53       0.170500
     68 H24         -6.1820     6.5900     0.8300 h1         1 F53       0.060700
     69 H25         -3.8110     6.8780     0.6250 h1         1 F53       0.023200
     70 H25A        -3.7030     5.7140    -0.7210 h1         1 F53       0.023200
     71 H27         -6.3800     8.2020    -1.8850 h2         1 F53       0.039700
     72 H29         -6.8830     5.7090    -4.0220 h1         1 F53       0.008200
     73 H29A        -5.2030     5.1520    -4.2290 h1         1 F53       0.008200
     74 H30         -6.7000     4.1440    -2.2210 hc         1 F53       0.034700
     75 H30A        -4.9910     4.5800    -1.9050 hc         1 F53       0.034700
     76 H31         -7.5090     6.1990    -1.2050 hc         1 F53       0.056700
     77 H32         -7.3400     2.1550     3.8980 hc         1 F53       0.035200
     78 H32A        -6.5830     2.5910     5.4370 hc         1 F53       0.035200
     79 H34         -9.1940     6.1250     2.2470 ha         1 F53       0.098000
     80 H35         -8.7590     7.7840     4.0180 ha         1 F53       0.099000
     81 H36         -7.3690     7.1770     5.9620 ha         1 F53       0.098000
     82 H37         -6.4140     4.9100     6.1340 ha         1 F53       0.099500
     83 H33         -8.2400     3.8580     2.4200 ha         1 F53       0.099500
@<TRIPOS>BOND
     1     1     2 1   
     2     1     3 1   
     3     1    42 1   
     4     1    43 1   
     5     2    44 1   
     6     3     4 ar  
     7     3     8 ar  
     8     4     5 ar  
     9     4    45 1   
    10     5     6 ar  
    11     5    46 1   
    12     6     7 ar  
    13     6    10 1   
    14     7     8 ar  
    15     7    47 1   
    16     8    48 1   
    17     9    31 1   
    18     9    32 1   
    19    10    11 2   
    20    10    12 2   
    21    10    13 1   
    22    13    14 1   
    23    13    18 1   
    24    14    15 1   
    25    14    49 1   
    26    14    50 1   
    27    15    16 1   
    28    15    17 1   
    29    15    51 1   
    30    16    23 1   
    31    16    52 1   
    32    16    53 1   
    33    17    20 1   
    34    17    54 1   
    35    17    55 1   
    36    18    19 1   
    37    18    56 1   
    38    18    57 1   
    39    19    21 1   
    40    19    22 1   
    41    19    58 1   
    42    20    59 1   
    43    20    60 1   
    44    20    61 1   
    45    21    62 1   
    46    22    24 1   
    47    22    35 1   
    48    22    63 1   
    49    23    64 1   
    50    23    65 1   
    51    23    66 1   
    52    24    25 1   
    53    24    67 1   
    54    25    26 2   
    55    25    27 1   
    56    27    28 1   
    57    28    29 1   
    58    28    34 1   
    59    28    68 1   
    60    29    30 1   
    61    29    69 1   
    62    29    70 1   
    63    30    31 1   
    64    31    34 1   
    65    31    71 1   
    66    32    33 1   
    67    32    72 1   
    68    32    73 1   
    69    33    34 1   
    70    33    74 1   
    71    33    75 1   
    72    34    76 1   
    73    35    41 1   
    74    35    77 1   
    75    35    78 1   
    76    36    37 ar  
    77    36    41 ar  
    78    36    83 1   
    79    37    38 ar  
    80    37    79 1   
    81    38    39 ar  
    82    38    80 1   
    83    39    40 ar  
    84    39    81 1   
    85    40    41 ar  
    86    40    82 1   
@<TRIPOS>SUBSTRUCTURE
     1 F53         1 TEMP              0 ****  ****    0 ROOT
