@<TRIPOS>MOLECULE
molecule
   83    86     1     0     0
SMALL
bcc


@<TRIPOS>ATOM
      1 C1           0.0000     0.0000     0.0000 c3         1 F53       0.181700
      2 O1           1.4290     0.0000     0.0000 oh         1 F53      -0.597800
      3 C2          -0.5030     0.0000     1.4200 ca         1 F53      -0.035300
      4 C3          -0.7340     1.1970     2.0720 ca         1 F53      -0.131500
      5 C4          -1.1950     1.1970     3.3750 ca         1 F53      -0.036000
      6 C5          -1.4240     0.0000     4.0280 ca         1 F53      -0.315500
      7 C6          -1.1940    -1.1970     3.3750 ca         1 F53      -0.036000
      8 C7          -0.7370    -1.1970     2.0710 ca         1 F53      -0.131500
      9 O8          -5.4240     6.9850    -3.2780 os         1 F53      -0.416600
     10 S8          -2.0110     0.0000     5.6880 sy         1 F53       1.417200
     11 O9          -1.6310    -1.2490     6.2490 o          1 F53      -0.631800
     12 O10         -1.6320     1.2500     6.2480 o          1 F53      -0.631800
     13 N11         -3.6660     0.0000     5.6250 n3         1 F53      -0.807500
     14 C12         -4.4040    -1.2570     5.7610 c3         1 F53       0.232800
     15 C13         -4.8480    -1.4320     7.2150 c3         1 F53      -0.089700
     16 C14         -3.6170    -1.5860     8.1090 c3         1 F53      -0.079400
     17 C15         -5.6480    -0.2040     7.6550 c3         1 F53      -0.079400
     18 C16         -4.3920     1.2590     5.4300 c3         1 F53       0.209800
     19 C17         -4.6630     1.4660     3.9390 c3         1 F53       0.102100
     20 C18         -6.9490    -0.1290     6.8530 c3         1 F53      -0.093100
     21 O18         -5.5440     0.4440     3.4680 oh         1 F53      -0.600800
     22 C19         -5.3080     2.8360     3.7230 c3         1 F53       0.122700
     23 C20         -2.9270    -2.9170     7.8050 c3         1 F53      -0.093100
     24 N20         -5.4580     3.0850     2.2880 ns         1 F53      -0.568900
     25 C21         -5.5160     4.3500     1.8260 c          1 F53       0.745100
     26 O22         -5.4440     5.2830     2.6010 o          1 F53      -0.591000
     27 O23         -5.6550     4.5790     0.5060 os         1 F53      -0.432900
     28 C24         -5.7100     5.9660     0.0810 c3         1 F53       0.137100
     29 C25         -4.2970     6.4970    -0.2650 c3         1 F53       0.110400
     30 O26         -4.5200     7.5610    -1.2030 os         1 F53      -0.403600
     31 C27         -5.7370     7.3310    -1.9230 c3         1 F53       0.330900
     32 C29         -5.8980     5.6620    -3.5730 c3         1 F53       0.127400
     33 C30         -5.9680     4.9420    -2.2020 c3         1 F53      -0.107400
     34 C31         -6.4330     6.1010    -1.2820 c3         1 F53      -0.138700
     35 C32         -6.6840     2.8620     4.3930 c3         1 F53      -0.048100
     36 C33         -8.0480     4.5870     3.1980 ca         1 F53      -0.117000
     37 C34         -8.5830     5.8580     3.1010 ca         1 F53      -0.121500
     38 C35         -8.3390     6.7890     4.0940 ca         1 F53      -0.125000
     39 C36         -7.5600     6.4480     5.1840 ca         1 F53      -0.121500
     40 C37         -7.0240     5.1770     5.2800 ca         1 F53      -0.117000
     41 C38         -7.2680     4.2470     4.2880 ca         1 F53      -0.072300
     42 H1          -0.3610    -0.8840    -0.5110 h1         1 F53       0.029200
     43 H1A         -0.3610     0.8840    -0.5110 h1         1 F53       0.029200
     44 HO1          1.7440    -0.1540    -0.8760 ho         1 F53       0.407000
     45 H3          -0.5550     2.1350     1.5610 ha         1 F53       0.141500
     46 H4          -1.3760     2.1360     3.8850 ha         1 F53       0.151500
     47 H6          -1.3750    -2.1350     3.8860 ha         1 F53       0.151500
     48 H7          -0.5560    -2.1360     1.5600 ha         1 F53       0.141500
     49 H12         -5.2740    -1.2370     5.1170 h1         1 F53       0.064200
     50 H12A        -3.7630    -2.0840     5.4780 h1         1 F53       0.064200
     51 H13         -5.4690    -2.3170     7.2990 hc         1 F53       0.059700
     52 H14         -2.9290    -0.7710     7.9200 hc         1 F53       0.041700
     53 H14A        -3.9210    -1.5670     9.1490 hc         1 F53       0.041700
     54 H15         -5.8780    -0.2830     8.7100 hc         1 F53       0.041700
     55 H15A        -5.0630     0.6900     7.4780 hc         1 F53       0.041700
     56 H16         -3.7960     2.0810     5.8070 h1         1 F53       0.088700
     57 H16A        -5.3330     1.2190     5.9660 h1         1 F53       0.088700
     58 H17         -3.7290     1.4170     3.3920 h1         1 F53       0.044700
     59 H18         -6.7300    -0.2390     5.7980 hc         1 F53       0.037200
     60 H18A        -7.4250     0.8280     7.0260 hc         1 F53       0.037200
     61 H18B        -7.6140    -0.9250     7.1690 hc         1 F53       0.037200
     62 HO18        -5.2100     0.0890     2.6600 ho         1 F53       0.403000
     63 H19         -4.6800     3.6030     4.1590 h1         1 F53       0.091700
     64 H20         -1.8560    -2.8020     7.9150 hc         1 F53       0.037200
     65 H20A        -3.2820    -3.6740     8.4940 hc         1 F53       0.037200
     66 H20B        -3.1550    -3.2180     6.7890 hc         1 F53       0.037200
     67 HN20        -5.4950     2.3170     1.6470 hn         1 F53       0.318500
     68 H24         -6.1820     6.5900     0.8300 h1         1 F53       0.095700
     69 H25         -3.8110     6.8780     0.6250 h1         1 F53       0.065200
     70 H25A        -3.7030     5.7140    -0.7210 h1         1 F53       0.065200
     71 H27         -6.3800     8.2020    -1.8850 h2         1 F53       0.094700
     72 H29         -6.8830     5.7090    -4.0220 h1         1 F53       0.051200
     73 H29A        -5.2030     5.1520    -4.2290 h1         1 F53       0.051200
     74 H30         -6.7000     4.1440    -2.2210 hc         1 F53       0.065700
     75 H30A        -4.9910     4.5800    -1.9050 hc         1 F53       0.065700
     76 H31         -7.5090     6.1990    -1.2050 hc         1 F53       0.087700
     77 H32         -7.3400     2.1550     3.8980 hc         1 F53       0.062200
     78 H32A        -6.5830     2.5910     5.4370 hc         1 F53       0.062200
     79 H34         -9.1940     6.1250     2.2470 ha         1 F53       0.125000
     80 H35         -8.7590     7.7840     4.0180 ha         1 F53       0.125000
     81 H36         -7.3690     7.1770     5.9620 ha         1 F53       0.125000
     82 H37         -6.4140     4.9100     6.1340 ha         1 F53       0.124500
     83 H33         -8.2400     3.8580     2.4200 ha         1 F53       0.124500
@<TRIPOS>BOND
     1     1     2 1
     2     1     3 1
     3     3     4 ar
     4     3     8 ar
     5     4     5 ar
     6     5     6 ar
     7     6     7 ar
     8     6    10 1
     9     7     8 ar
    10     9    31 1
    11     9    32 1
    12    10    11 2
    13    10    12 2
    14    10    13 1
    15    13    14 1
    16    13    18 1
    17    14    15 1
    18    15    16 1
    19    15    17 1
    20    16    23 1
    21    17    20 1
    22    18    19 1
    23    19    21 1
    24    19    22 1
    25    22    24 1
    26    22    35 1
    27    24    25 1
    28    25    26 2
    29    25    27 1
    30    27    28 1
    31    28    29 1
    32    28    34 1
    33    29    30 1
    34    30    31 1
    35    31    34 1
    36    32    33 1
    37    33    34 1
    38    35    41 1
    39    36    37 ar
    40    36    41 ar
    41    37    38 ar
    42    38    39 ar
    43    39    40 ar
    44    40    41 ar
    45     1    42 1
    46     1    43 1
    47     2    44 1
    48     4    45 1
    49     5    46 1
    50     7    47 1
    51     8    48 1
    52    14    49 1
    53    14    50 1
    54    15    51 1
    55    16    52 1
    56    16    53 1
    57    17    54 1
    58    17    55 1
    59    18    56 1
    60    18    57 1
    61    19    58 1
    62    20    59 1
    63    20    60 1
    64    20    61 1
    65    21    62 1
    66    22    63 1
    67    23    64 1
    68    23    65 1
    69    23    66 1
    70    24    67 1
    71    28    68 1
    72    29    69 1
    73    29    70 1
    74    31    71 1
    75    32    72 1
    76    32    73 1
    77    33    74 1
    78    33    75 1
    79    34    76 1
    80    35    77 1
    81    35    78 1
    82    36    83 1
    83    37    79 1
    84    38    80 1
    85    39    81 1
    86    40    82 1
@<TRIPOS>SUBSTRUCTURE
     1 F53         1 TEMP              0 ****  ****    0 ROOT
