@<TRIPOS>MOLECULE
molecule
   44    47     1     0     0
SMALL
bcc


@<TRIPOS>ATOM
      1 C09          0.0000     0.0000     0.0000 cp         1 F54      -0.066000
      2 C10          1.3940     0.0000     0.0000 ca         1 F54      -0.118000
      3 C11          2.0840     0.0000     1.1920 ca         1 F54      -0.107000
      4 C12         -0.6980     0.0060     1.2080 ca         1 F54      -0.118000
      5 C13         -0.0090     0.0070     2.4010 ca         1 F54      -0.107000
      6 C14          1.3860     0.0010     2.4010 cp         1 F54      -0.106500
      7 C15          2.1270     0.0000     3.6840 cp         1 F54       0.483800
      8 C17          3.8810     0.8570     4.9420 ca         1 F54       0.402600
      9 C18          4.9840     1.7220     5.0560 ca         1 F54      -0.163300
     10 C19          5.6970     1.7590     6.2140 ca         1 F54      -0.164000
     11 C20          5.3530     0.9500     7.2970 ca         1 F54       0.086900
     12 C22          4.2880     0.0970     7.2210 ca         1 F54      -0.101000
     13 C23          3.5350     0.0360     6.0450 ca         1 F54      -0.124300
     14 C24          2.3890    -0.8650     5.9170 ca         1 F54      -0.007600
     15 C25          1.9790    -1.7490     7.0280 c          1 F54       0.877200
     16 C28          1.7030    -0.8560     4.7110 ca         1 F54      -0.207600
     17 C29          0.5120    -1.7570     4.5060 c3         1 F54      -0.040800
     18 F21          6.0810     1.0100     8.4340 f          1 F54      -0.157900
     19 N16          3.1640     0.8010     3.8180 nb         1 F54      -0.717000
     20 O26          2.4450    -2.8680     7.1180 o          1 F54      -0.816300
     21 O27          1.0880    -1.3160     7.9410 o          1 F54      -0.816300
     22 C02         -2.0590     0.0630    -3.6680 ca         1 F54       0.431600
     23 C03         -2.4290    -0.8800    -2.7270 ca         1 F54      -0.255300
     24 C04         -1.7670    -0.9220    -1.5120 ca         1 F54      -0.077000
     25 C06         -0.4280     0.9200    -2.2850 ca         1 F54       0.526300
     26 C08         -0.7420    -0.0000    -1.2840 cp         1 F54      -0.129300
     27 N05         -1.0840     0.9170    -3.4280 nb         1 F54      -0.694000
     28 H101         1.9360    -0.0030    -0.9380 ha         1 F54       0.129000
     29 H111         3.1670    -0.0030     1.1920 ha         1 F54       0.150500
     30 H121        -1.7810     0.0090     1.2080 ha         1 F54       0.129000
     31 H131        -0.5510     0.0100     3.3390 ha         1 F54       0.150500
     32 H181         5.2650     2.3580     4.2240 ha         1 F54       0.135000
     33 H191         6.5450     2.4280     6.2970 ha         1 F54       0.126000
     34 H221         4.0290    -0.5270     8.0680 ha         1 F54       0.179000
     35 H291        -0.3940    -1.2220     4.7620 hc         1 F54       0.046367
     36 H293         0.6070    -2.6300     5.1400 hc         1 F54       0.046367
     37 H292         0.4680    -2.0670     3.4690 hc         1 F54       0.046367
     38 H013        -2.3620     0.9060    -5.6000 hc         1 F54       0.050700
     39 H011        -2.6560    -0.8360    -5.5040 hc         1 F54       0.050700
     40 H012        -3.8310     0.2980    -4.8250 hc         1 F54       0.050700
     41 H031        -3.2290    -1.5790    -2.9380 ha         1 F54       0.138000
     42 H041        -2.0380    -1.6510    -0.7570 ha         1 F54       0.152000
     43 C01         -2.7770     0.1110    -4.9920 c3         1 F54      -0.139400
     44 Cl07         0.8470     2.0700    -2.0260 cl         1 F54      -0.151000
@<TRIPOS>BOND
     1    20    15 1
     2    21    15 1
     3    15    14 1
     4    17    16 1
     5    14    16 ar
     6    14    13 ar
     7    16     7 ar
     8    24    23 ar
     9    24    26 ar
    10    23    22 ar
    11     5     4 ar
    12     5     6 ar
    13     4     1 ar
    14    12    13 ar
    15    12    11 ar
    16    13     8 ar
    17     7     6 1
    18     7    19 ar
    19     6     3 ar
    20     1    26 1
    21     1     2 ar
    22    26    25 ar
    23    22    43 1
    24    22    27 ar
    25     3     2 ar
    26    11    18 1
    27    11    10 ar
    28     8    19 ar
    29     8     9 ar
    30    25    27 ar
    31    25    44 1
    32    10     9 ar
    33     2    28 1
    34     3    29 1
    35     4    30 1
    36     5    31 1
    37     9    32 1
    38    10    33 1
    39    12    34 1
    40    17    35 1
    41    17    36 1
    42    17    37 1
    43    43    38 1
    44    43    39 1
    45    43    40 1
    46    23    41 1
    47    24    42 1
@<TRIPOS>SUBSTRUCTURE
     1 F54         1 TEMP              0 ****  ****    0 ROOT
