@<TRIPOS>MOLECULE
F55
   41    42     1     0     0
SMALL
bcc


@<TRIPOS>ATOM
      1 C14          0.0000     0.0000     0.0000 ca         1 F55      -0.048000
      2 C13          1.3790     0.0000     0.0000 ca         1 F55      -0.108500
      3 C12          2.0750     0.0000     1.1960 ca         1 F55      -0.014600
      4 Cl1          3.8120    -0.0000     1.1880 cl         1 F55      -0.018400
      5 C11          1.3920     0.0000     2.4020 ca         1 F55      -0.108500
      6 C10          0.0130     0.0000     2.4150 ca         1 F55      -0.048000
      7 C9          -0.6940     0.0000     1.2110 ca         1 F55      -0.163600
      8 C8          -2.1720     0.0010     1.2180 c          1 F55       0.587700
      9 O8          -2.7850     0.0010     0.1700 o          1 F55      -0.544100
     10 N2          -2.8390     0.0010     2.3900 ns         1 F55      -0.179500
     11 C7          -4.1870     0.0010     2.3960 c          1 F55       0.567100
     12 O7          -4.8010     0.0000     1.3470 o          1 F55      -0.610100
     13 N1          -4.8550     0.0000     3.5670 ns         1 F55      -0.191900
     14 C1          -6.3200     0.0010     3.5740 c3         1 F55       0.238500
     15 O5          -6.7960     1.3420     3.6940 os         1 F55      -0.400600
     16 C5          -8.2200     1.4590     3.6860 c3         1 F55       0.171100
     17 C6          -8.6110     2.9350     3.7900 c3         1 F55       0.225400
     18 O6          -8.1680     3.6300     2.6230 oh         1 F55      -0.574800
     19 C4          -8.8010     0.6920     4.8760 c3         1 F55       0.137100
     20 O4         -10.2280     0.7590     4.8370 oh         1 F55      -0.578800
     21 C3          -8.3550    -0.7720     4.7960 c3         1 F55       0.149100
     22 O3          -8.8310    -1.4800     5.9430 oh         1 F55      -0.590800
     23 C2          -6.8240    -0.8260     4.7610 c3         1 F55       0.130100
     24 O2          -6.3980    -2.1820     4.6130 oh         1 F55      -0.574800
     25 H14         -0.5430     0.0000    -0.9370 ha         1 F55       0.116500
     26 H13          1.9190    -0.0000    -0.9390 ha         1 F55       0.118500
     27 H11          1.9420    -0.0000     3.3360 ha         1 F55       0.118500
     28 H10         -0.5210     0.0000     3.3580 ha         1 F55       0.116500
     29 HN2         -2.3340     0.0350     3.2530 hn         1 F55       0.168500
     30 HN1         -4.3500     0.0130     4.4310 hn         1 F55       0.162500
     31 H1          -6.6900    -0.4300     2.6520 h2         1 F55       0.066700
     32 H5          -8.6090     1.0420     2.7650 h1         1 F55       0.037700
     33 H6          -8.1470     3.3700     4.6670 h1         1 F55      -0.004800
     34 H6A         -9.6880     3.0190     3.8730 h1         1 F55      -0.004800
     35 HO6         -8.5570     4.4890     2.6020 ho         1 F55       0.387000
     36 H4          -8.4380     1.1290     5.7980 h1         1 F55       0.019700
     37 HO4        -10.5540     1.0180     5.6840 ho         1 F55       0.398000
     38 H3          -8.7530    -1.2220     3.8950 h1         1 F55       0.032700
     39 HO3         -9.4270    -2.1570     5.6690 ho         1 F55       0.404000
     40 H2          -6.4280    -0.4150     5.6810 h1         1 F55       0.016700
     41 HO2         -6.1870    -2.5390     5.4600 ho         1 F55       0.398000
@<TRIPOS>BOND
     1     1     2 ar  
     2     1     7 ar  
     3     1    25 1   
     4     2     3 ar  
     5     2    26 1   
     6     3     4 1   
     7     3     5 ar  
     8     5     6 ar  
     9     5    27 1   
    10     6     7 ar  
    11     6    28 1   
    12     7     8 1   
    13     8     9 2   
    14     8    10 1   
    15    10    11 1   
    16    10    29 1   
    17    11    12 2   
    18    11    13 1   
    19    13    14 1   
    20    13    30 1   
    21    14    15 1   
    22    14    23 1   
    23    14    31 1   
    24    15    16 1   
    25    16    17 1   
    26    16    19 1   
    27    16    32 1   
    28    17    18 1   
    29    17    33 1   
    30    17    34 1   
    31    18    35 1   
    32    19    20 1   
    33    19    21 1   
    34    19    36 1   
    35    20    37 1   
    36    21    22 1   
    37    21    23 1   
    38    21    38 1   
    39    22    39 1   
    40    23    24 1   
    41    23    40 1   
    42    24    41 1   
@<TRIPOS>SUBSTRUCTURE
     1 F55         1 TEMP              0 ****  ****    0 ROOT
