@<TRIPOS>MOLECULE
molecule
   99    98     1     0     0
SMALL
bcc


@<TRIPOS>ATOM
      1 C2I          0.0000     0.0000     0.0000 c3         1 F57      -0.092100
      2 C2H          1.5300     0.0000     0.0000 c3         1 F57      -0.084400
      3 C2G          2.0400     0.0000     1.4430 c3         1 F57      -0.081400
      4 C2F          3.5700     0.0000     1.4430 c3         1 F57      -0.082400
      5 C2E          4.0800    -0.0010     2.8860 c3         1 F57      -0.082400
      6 C2D          5.6100    -0.0010     2.8860 c3         1 F57      -0.082400
      7 C2C          6.1190    -0.0020     4.3280 c3         1 F57      -0.082400
      8 C2B          7.6490    -0.0020     4.3280 c3         1 F57      -0.082400
      9 C2A          8.1600    -0.0020     5.7710 c3         1 F57      -0.082400
     10 C29          9.6890    -0.0020     5.7720 c3         1 F57      -0.082400
     11 C28         10.1990    -0.0030     7.2140 c3         1 F57      -0.082400
     12 C27         11.7300    -0.0030     7.2140 c3         1 F57      -0.082400
     13 C26         12.2390    -0.0030     8.6570 c3         1 F57      -0.082400
     14 C25         13.7700    -0.0030     8.6570 c3         1 F57      -0.080400
     15 C24         14.2790    -0.0040    10.0990 c3         1 F57      -0.084400
     16 C23         15.8090    -0.0040    10.0990 c3         1 F57      -0.071400
     17 C22         16.3190    -0.0040    11.5420 c3         1 F57      -0.129400
     18 C21         17.8250    -0.0050    11.5420 c          1 F57       0.639100
     19 O22         18.4300    -0.0040    10.4960 o          1 F57      -0.586000
     20 O21         18.4970    -0.0050    12.7050 os         1 F57      -0.387900
     21 C2          19.9470    -0.0040    12.6290 c3         1 F57       0.132100
     22 C1          20.4570     1.4380    12.6030 c3         1 F57       0.206400
     23 O11         20.1430     2.0760    13.8420 os         1 F57      -0.560200
     24 P           20.5320     3.6050    14.1650 p5         1 F57       1.177900
     25 O13         19.9120     4.0270    15.5890 o          1 F57      -0.909833
     26 O12         22.1340     3.7530    14.2110 o          1 F57      -0.909833
     27 O14         19.9850     4.4860    13.1090 o          1 F57      -0.909833
     28 C3          20.5210    -0.7270    13.8500 c3         1 F57       0.165400
     29 O31         20.1990     0.0240    15.0500 os         1 F57      -0.312900
     30 C31         20.6350    -0.4790    16.2170 c          1 F57       0.642100
     31 O32         21.2630    -1.5110    16.2340 o          1 F57      -0.632000
     32 C32         20.3380     0.2440    17.5060 c3         1 F57      -0.127400
     33 C33         20.9420    -0.5350    18.6770 c3         1 F57      -0.071400
     34 C34         20.6410     0.2000    19.9850 c3         1 F57      -0.084400
     35 C35         21.2440    -0.5790    21.1570 c3         1 F57      -0.081400
     36 C36         20.9450     0.1550    22.4650 c3         1 F57      -0.082400
     37 C37         21.5470    -0.6220    23.6370 c3         1 F57      -0.082400
     38 C38         21.2470     0.1110    24.9450 c3         1 F57      -0.082400
     39 C39         21.8500    -0.6660    26.1170 c3         1 F57      -0.084400
     40 C3A         21.5490     0.0670    27.4250 c3         1 F57      -0.092100
     41 H1          -0.3610     0.0000    -1.0210 hc         1 F57       0.031033
     42 H2          -0.3610    -0.8850     0.5110 hc         1 F57       0.031033
     43 H3          -0.3610     0.8850     0.5110 hc         1 F57       0.031033
     44 H4           1.8910     0.8850    -0.5110 hc         1 F57       0.039200
     45 H5           1.8910    -0.8850    -0.5110 hc         1 F57       0.039200
     46 H6           1.6790    -0.8850     1.9540 hc         1 F57       0.040700
     47 H7           1.6790     0.8850     1.9540 hc         1 F57       0.040700
     48 H8           3.9310     0.8850     0.9330 hc         1 F57       0.040200
     49 H9           3.9310    -0.8840     0.9320 hc         1 F57       0.040200
     50 H10          3.7180     0.8830     3.3970 hc         1 F57       0.040200
     51 H11          3.7180    -0.8860     3.3960 hc         1 F57       0.040200
     52 H12          5.9710     0.8840     2.3760 hc         1 F57       0.040700
     53 H13          5.9710    -0.8850     2.3750 hc         1 F57       0.040700
     54 H14          5.7580    -0.8870     4.8380 hc         1 F57       0.040700
     55 H15          5.7580     0.8820     4.8390 hc         1 F57       0.040700
     56 H16          8.0100     0.8820     3.8170 hc         1 F57       0.040700
     57 H17          8.0100    -0.8870     3.8180 hc         1 F57       0.040700
     58 H18          7.7990     0.8830     6.2810 hc         1 F57       0.040200
     59 H19          7.7980    -0.8860     6.2820 hc         1 F57       0.040200
     60 H20         10.0510     0.8830     5.2610 hc         1 F57       0.040200
     61 H21         10.0500    -0.8860     5.2610 hc         1 F57       0.040200
     62 H22          9.8380    -0.8870     7.7240 hc         1 F57       0.039700
     63 H23          9.8380     0.8820     7.7250 hc         1 F57       0.039700
     64 H24         12.0910    -0.8870     6.7030 hc         1 F57       0.040200
     65 H25         12.0910     0.8820     6.7030 hc         1 F57       0.040200
     66 H26         11.8780    -0.8870     9.1680 hc         1 F57       0.039700
     67 H27         11.8780     0.8820     9.1680 hc         1 F57       0.039700
     68 H28         14.1310    -0.8870     8.1460 hc         1 F57       0.042200
     69 H29         14.1310     0.8820     8.1470 hc         1 F57       0.042200
     70 H30         13.9180    -0.8880    10.6090 hc         1 F57       0.038700
     71 H31         13.9180     0.8810    10.6110 hc         1 F57       0.038700
     72 H32         16.1700     0.8810     9.5890 hc         1 F57       0.055700
     73 H33         16.1700    -0.8880     9.5880 hc         1 F57       0.055700
     74 H34         15.9570    -0.8890    12.0520 hc         1 F57       0.069200
     75 H35         15.9570     0.8800    12.0530 hc         1 F57       0.069200
     76 H36         20.2620    -0.5140    11.7270 h1         1 F57       0.044700
     77 H37         19.9820     1.9740    11.7900 h1         1 F57       0.027700
     78 H38         21.5300     1.4390    12.4580 h1         1 F57       0.027700
     79 H41         21.5970    -0.8050    13.7500 h1         1 F57       0.032200
     80 H42         20.0910    -1.7190    13.9170 h1         1 F57       0.032200
     81 H43         19.2660     0.3210    17.6380 hc         1 F57       0.099200
     82 H44         20.7700     1.2370    17.4710 hc         1 F57       0.099200
     83 H45         20.5090    -1.5270    18.7130 hc         1 F57       0.042200
     84 H46         22.0140    -0.6120    18.5450 hc         1 F57       0.042200
     85 H47         21.0740     1.1930    19.9500 hc         1 F57       0.048700
     86 H48         19.5690     0.2790    20.1170 hc         1 F57       0.048700
     87 H49         20.8110    -1.5710    21.1920 hc         1 F57       0.034700
     88 H50         22.3160    -0.6570    21.0240 hc         1 F57       0.034700
     89 H51         19.8720     0.2340    22.5980 hc         1 F57       0.043200
     90 H52         21.3780     1.1480    22.4300 hc         1 F57       0.043200
     91 H53         21.1150    -1.6150    23.6720 hc         1 F57       0.036200
     92 H54         22.6200    -0.7010    23.5050 hc         1 F57       0.036200
     93 H55         21.6800     1.1040    24.9100 hc         1 F57       0.041200
     94 H56         20.1750     0.1900    25.0770 hc         1 F57       0.041200
     95 H57         21.4170    -1.6590    26.1520 hc         1 F57       0.036700
     96 H58         22.9220    -0.7450    25.9850 hc         1 F57       0.036700
     97 H59         21.9820     1.0600    27.3900 hc         1 F57       0.028033
     98 H60         20.4770     0.1460    27.5570 hc         1 F57       0.028033
     99 H61         21.9760    -0.4830    28.2540 hc         1 F57       0.028033
@<TRIPOS>BOND
     1    39    40 1
     2    39    38 1
     3    36    37 1
     4    36    35 1
     5    37    38 1
     6    34    35 1
     7    34    33 1
     8    32    33 1
     9    32    30 1
    10    31    30 2
    11    30    29 1
    12    29    28 1
    13    28    21 1
    14    21    20 1
    15    21    22 1
    16    20    18 1
    17    13    12 1
    18    13    14 1
    19    15    14 1
    20    15    16 1
    21    17    18 1
    22    17    16 1
    23    12    11 1
    24    11    10 1
    25    18    19 2
    26    22    23 1
    27    10     9 1
    28    23    24 1
    29     9     8 1
    30     8     7 1
    31    24    27 1
    32    24    25 1
    33    24    26 1
    34     7     6 1
    35     6     5 1
    36     5     4 1
    37     4     3 1
    38     3     2 1
    39     2     1 1
    40     1    41 1
    41     1    42 1
    42     1    43 1
    43     2    44 1
    44     2    45 1
    45     3    46 1
    46     3    47 1
    47     4    48 1
    48     4    49 1
    49     5    50 1
    50     5    51 1
    51     6    52 1
    52     6    53 1
    53     7    54 1
    54     7    55 1
    55     8    56 1
    56     8    57 1
    57     9    58 1
    58     9    59 1
    59    10    60 1
    60    10    61 1
    61    11    62 1
    62    11    63 1
    63    12    64 1
    64    12    65 1
    65    13    66 1
    66    13    67 1
    67    14    68 1
    68    14    69 1
    69    15    70 1
    70    15    71 1
    71    16    72 1
    72    16    73 1
    73    17    74 1
    74    17    75 1
    75    21    76 1
    76    22    77 1
    77    22    78 1
    78    28    79 1
    79    28    80 1
    80    32    81 1
    81    32    82 1
    82    33    83 1
    83    33    84 1
    84    34    85 1
    85    34    86 1
    86    35    87 1
    87    35    88 1
    88    36    89 1
    89    36    90 1
    90    37    91 1
    91    37    92 1
    92    38    93 1
    93    38    94 1
    94    39    95 1
    95    39    96 1
    96    40    97 1
    97    40    98 1
    98    40    99 1
@<TRIPOS>SUBSTRUCTURE
     1 F57         1 TEMP              0 ****  ****    0 ROOT
