@<TRIPOS>MOLECULE
F58
   49    50     1     0     0
SMALL
bcc


@<TRIPOS>ATOM
      1 C1          0.1570   -1.1480    0.3300 c3        1 F58      0.345300
      2 N1         -0.0850   -2.2390   -0.7080 n4        1 F58     -0.652800
      3 C2          1.6610   -0.7850    0.4290 c3        1 F58      0.119100
      4 N2         -2.3280   -1.4710   -1.6990 n4        1 F58     -0.593600
      5 O2          2.3010   -1.9560    0.8750 oh        1 F58     -0.618800
      6 C3          1.7640    0.3920    1.4210 c3        1 F58      0.083100
      7 O3          3.1290    0.7510    1.4120 oh        1 F58     -0.582800
      8 C4          0.8990    1.5770    0.9310 c3        1 F58      0.091100
      9 O4          0.8310    2.5470    1.9560 oh        1 F58     -0.576800
     10 C5         -0.5490    1.1190    0.6960 c3        1 F58      0.139100
     11 O5         -0.5710   -0.0460   -0.1620 os        1 F58     -0.495600
     12 C6         -1.3920    2.1230   -0.1020 c3        1 F58      0.136400
     13 O6         -2.5550    1.4380   -0.5490 oh        1 F58     -0.667800
     14 C7         -1.5400   -2.4750   -0.9440 c         1 F58      0.513100
     15 O7         -2.0620   -3.4960   -0.5200 o         1 F58     -0.317100
     16 C8         -1.9090   -1.3030   -3.1940 c         1 F58      0.608100
     17 O8         -0.7490   -1.5950   -3.4060 o         1 F58     -0.435100
     18 C9         -3.0170   -0.8100   -4.0910 c3        1 F58     -0.119700
     19 C10        -4.0060   -1.9420   -4.3660 c3        1 F58     -0.080400
     20 C11        -5.0900   -1.4540   -5.3110 c3        1 F58     -0.080900
     21 C12        -4.5010   -0.9160   -6.5980 c3        1 F58     -0.093400
     22 C13        -3.4880    0.1760   -6.3280 c3        1 F58     -0.080900
     23 C14        -2.3930   -0.3010   -5.3930 c3        1 F58     -0.080400
     24 H1         -0.2490   -1.5220    1.3200 hx        1 F58      0.136700
     25 HN1         0.3880   -1.9830   -1.5950 hn        1 F58      0.516300
     26 H2          2.0770   -0.4710   -0.5710 h1        1 F58      0.096700
     27 HN2        -2.2590   -0.5280   -1.2400 hn        1 F58      0.520300
     28 HO2         3.1740   -1.7050    1.2250 ho        1 F58      0.486000
     29 H3          1.4350    0.0740    2.4490 h1        1 F58      0.088700
     30 HO3         3.3130    1.2280    2.2360 ho        1 F58      0.452000
     31 H4          1.3420    2.0000   -0.0130 h1        1 F58      0.087700
     32 HO4         1.5910    3.1380    1.8520 ho        1 F58      0.447000
     33 H5         -1.0420    0.8570    1.6730 h1        1 F58      0.097700
     34 H6         -0.8450    2.4610   -1.0220 h1        1 F58      0.096700
     35 H6A        -1.6260    3.0010    0.5560 h1        1 F58      0.096700
     36 HO6        -3.3240    1.8570   -0.1390 ho        1 F58      0.450000
     37 H9         -3.5520    0.0460   -3.5850 hc        1 F58      0.114700
     38 H10        -4.4790   -2.2910   -3.4120 hc        1 F58      0.064700
     39 H10A       -3.4710   -2.8100   -4.8350 hc        1 F58      0.064700
     40 H11        -5.6990   -0.6580   -4.8080 hc        1 F58      0.075200
     41 H11A       -5.7770   -2.3120   -5.5400 hc        1 F58      0.075200
     42 H12        -5.3270   -0.5060   -7.2390 hc        1 F58      0.077700
     43 H12A       -4.0180   -1.7500   -7.1720 hc        1 F58      0.077700
     44 H13        -3.0150    0.5000   -7.2940 hc        1 F58      0.075200
     45 H13A       -4.0000    1.0720   -5.8880 hc        1 F58      0.075200
     46 H14        -1.8100   -1.1280   -5.8800 hc        1 F58      0.064700
     47 H14A       -1.6860    0.5400   -5.1720 hc        1 F58      0.064700
     48 H121        0.3460   -3.1120   -0.3380 hn        1 F58      0.516300
     49 H22        -3.3190   -1.7700   -1.6690 hn        1 F58      0.520300
@<TRIPOS>BOND
     1    1    2 1   
     2    1    3 1   
     3    1   11 1   
     4    1   24 1   
     5    2   14 1   
     6    2   25 1   
     7    2   48 1   
     8    3    5 1   
     9    3    6 1   
    10    3   26 1   
    11    4   14 1   
    12    4   16 1   
    13    4   27 1   
    14    4   49 1   
    15    5   28 1   
    16    6    7 1   
    17    6    8 1   
    18    6   29 1   
    19    7   30 1   
    20    8    9 1   
    21    8   10 1   
    22    8   31 1   
    23    9   32 1   
    24   10   11 1   
    25   10   12 1   
    26   10   33 1   
    27   12   13 1   
    28   12   34 1   
    29   12   35 1   
    30   13   36 1   
    31   14   15 2   
    32   16   17 2   
    33   16   18 1   
    34   18   19 1   
    35   18   23 1   
    36   18   37 1   
    37   19   20 1   
    38   19   38 1   
    39   19   39 1   
    40   20   21 1   
    41   20   40 1   
    42   20   41 1   
    43   21   22 1   
    44   21   42 1   
    45   21   43 1   
    46   22   23 1   
    47   22   44 1   
    48   22   45 1   
    49   23   46 1   
    50   23   47 1   
@<TRIPOS>SUBSTRUCTURE
     1 F58         1 TEMP              0 ****  ****    0 ROOT
