@<TRIPOS>MOLECULE
molecule
   51    53     1     0     0
SMALL
bcc


@<TRIPOS>ATOM
      1 C16          0.0000     0.0000     0.0000 ca         1 F59      -0.114000
      2 C17          1.3800     0.0000     0.0000 ca         1 F59      -0.126500
      3 C18          2.0740     0.0000     1.1960 ca         1 F59      -0.121000
      4 C19          1.3910    -0.0010     2.3990 ca         1 F59      -0.126500
      5 C20          0.0110     0.0000     2.4110 ca         1 F59      -0.114000
      6 C15         -0.6940     0.0000     1.2090 cp         1 F59      -0.046000
      7 C12         -2.1770     0.0000     1.2160 cp         1 F59      -0.004000
      8 C13         -2.8680     0.0010     2.4280 ca         1 F59      -0.131500
      9 C14         -4.2450     0.0010     2.4360 ca         1 F59      -0.081500
     10 C11         -2.8800     0.0060     0.0110 ca         1 F59      -0.131500
     11 C10         -4.2560     0.0060     0.0160 ca         1 F59      -0.081500
     12 C9          -4.9500     0.0000     1.2300 ca         1 F59      -0.153600
     13 C8          -6.4260    -0.0010     1.2360 c          1 F59       0.675700
     14 O8          -7.0290    -0.0000     2.2920 o          1 F59      -0.518100
     15 N2          -7.1060     0.0000     0.0720 ns         1 F59      -0.589500
     16 C7          -8.4530    -0.0000     0.0780 c          1 F59       0.781100
     17 O7          -9.0560    -0.0000     1.1340 o          1 F59      -0.573100
     18 N1          -9.1320    -0.0000    -1.0850 ns         1 F59      -0.577900
     19 C1         -10.5970    -0.0010    -1.0790 c3         1 F59       0.336500
     20 O5         -11.0750    -1.3430    -1.1940 os         1 F59      -0.418600
     21 C5         -12.4980    -1.4600    -1.1720 c3         1 F59       0.153100
     22 C6         -12.8900    -2.9360    -1.2720 c3         1 F59       0.153400
     23 O6         -12.4360    -3.6300    -0.1100 oh         1 F59      -0.591800
     24 C4         -13.0910    -0.6930    -2.3560 c3         1 F59       0.098100
     25 O4         -14.5180    -0.7600    -2.3030 oh         1 F59      -0.599800
     26 C3         -12.6440     0.7710    -2.2800 c3         1 F59       0.109100
     27 O3         -13.1330     1.4790    -3.4220 oh         1 F59      -0.608800
     28 C2         -11.1130     0.8260    -2.2590 c3         1 F59       0.097100
     29 O2         -10.6860     2.1820    -2.1160 oh         1 F59      -0.590800
     30 H16         -0.5430     0.0000    -0.9380 ha         1 F59       0.133500
     31 H17          1.9200     0.0000    -0.9390 ha         1 F59       0.132500
     32 H18          3.1580    -0.0000     1.1910 ha         1 F59       0.131000
     33 H19          1.9400    -0.0010     3.3330 ha         1 F59       0.132500
     34 H20         -0.5230    -0.0000     3.3540 ha         1 F59       0.133500
     35 H13         -2.3210     0.0010     3.3630 ha         1 F59       0.139500
     36 H14         -4.7810    -0.0010     3.3770 ha         1 F59       0.141000
     37 H11         -2.3420     0.0100    -0.9290 ha         1 F59       0.139500
     38 H10         -4.8010     0.0080    -0.9200 ha         1 F59       0.141000
     39 HN2         -6.6090    -0.0100    -0.7970 hn         1 F59       0.313500
     40 HN1         -8.6360    -0.0380    -1.9540 hn         1 F59       0.307500
     41 H1         -10.9590     0.4310    -0.1540 h2         1 F59       0.100700
     42 H5         -12.8780    -1.0430    -0.2470 h1         1 F59       0.071700
     43 H6         -12.4360    -3.3710    -2.1540 h1         1 F59       0.033700
     44 H6A        -13.9680    -3.0190    -1.3440 h1         1 F59       0.033700
     45 HO6        -12.8440    -4.4790    -0.0710 ho         1 F59       0.402000
     46 H4         -12.7370    -1.1300    -3.2820 h1         1 F59       0.053700
     47 HO4        -14.8550    -0.9560    -3.1620 ho         1 F59       0.413000
     48 H3         -13.0340     1.2200    -1.3750 h1         1 F59       0.067700
     49 HO3        -13.7430     2.1410    -3.1430 ho         1 F59       0.417000
     50 H2         -10.7260     0.4150    -3.1840 h1         1 F59       0.049700
     51 HO2        -10.4940     2.5430    -2.9650 ho         1 F59       0.412000
@<TRIPOS>BOND
     1     1     2 ar
     2     1     6 ar
     3     2     3 ar
     4     3     4 ar
     5     4     5 ar
     6     5     6 ar
     7     6     7 1
     8     7     8 ar
     9     7    10 ar
    10     8     9 ar
    11     9    12 ar
    12    10    11 ar
    13    11    12 ar
    14    12    13 1
    15    13    14 2
    16    13    15 1
    17    15    16 1
    18    16    17 2
    19    16    18 1
    20    18    19 1
    21    19    20 1
    22    19    28 1
    23    20    21 1
    24    21    22 1
    25    21    24 1
    26    22    23 1
    27    24    25 1
    28    24    26 1
    29    26    27 1
    30    26    28 1
    31    28    29 1
    32     1    30 1
    33     2    31 1
    34     3    32 1
    35     4    33 1
    36     5    34 1
    37     8    35 1
    38     9    36 1
    39    10    37 1
    40    11    38 1
    41    15    39 1
    42    18    40 1
    43    19    41 1
    44    21    42 1
    45    22    43 1
    46    22    44 1
    47    23    45 1
    48    24    46 1
    49    25    47 1
    50    26    48 1
    51    27    49 1
    52    28    50 1
    53    29    51 1
@<TRIPOS>SUBSTRUCTURE
     1 F59         1 TEMP              0 ****  ****    0 ROOT
