@<TRIPOS>MOLECULE
F59
   51    53     1     0     0
SMALL
bcc


@<TRIPOS>ATOM
      1 C16          0.0000     0.0000     0.0000 ca         1 F59      -0.094500
      2 C17          1.3800     0.0000     0.0000 ca         1 F59      -0.098000
      3 C18          2.0740     0.0000     1.1960 ca         1 F59      -0.095000
      4 C19          1.3910    -0.0010     2.3990 ca         1 F59      -0.098000
      5 C20          0.0110     0.0000     2.4110 ca         1 F59      -0.094500
      6 C15         -0.6940     0.0000     1.2090 cp         1 F59      -0.042000
      7 C12         -2.1770     0.0000     1.2160 cp         1 F59      -0.001000
      8 C13         -2.8680     0.0010     2.4280 ca         1 F59      -0.112500
      9 C14         -4.2450     0.0010     2.4360 ca         1 F59      -0.053500
     10 C11         -2.8800     0.0060     0.0110 ca         1 F59      -0.112500
     11 C10         -4.2560     0.0060     0.0160 ca         1 F59      -0.053500
     12 C9          -4.9500     0.0000     1.2300 ca         1 F59      -0.167600
     13 C8          -6.4260    -0.0010     1.2360 c          1 F59       0.587700
     14 O8          -7.0290    -0.0000     2.2920 o          1 F59      -0.548100
     15 N2          -7.1060     0.0000     0.0720 ns         1 F59      -0.178500
     16 C7          -8.4530    -0.0000     0.0780 c          1 F59       0.567100
     17 O7          -9.0560    -0.0000     1.1340 o          1 F59      -0.612100
     18 N1          -9.1320    -0.0000    -1.0850 ns         1 F59      -0.190900
     19 C1         -10.5970    -0.0010    -1.0790 c3         1 F59       0.237500
     20 O5         -11.0750    -1.3430    -1.1940 os         1 F59      -0.400600
     21 C5         -12.4980    -1.4600    -1.1720 c3         1 F59       0.173100
     22 C6         -12.8900    -2.9360    -1.2720 c3         1 F59       0.225400
     23 O6         -12.4360    -3.6300    -0.1100 oh         1 F59      -0.574800
     24 C4         -13.0910    -0.6930    -2.3560 c3         1 F59       0.136100
     25 O4         -14.5180    -0.7600    -2.3030 oh         1 F59      -0.579800
     26 C3         -12.6440     0.7710    -2.2800 c3         1 F59       0.146100
     27 O3         -13.1330     1.4790    -3.4220 oh         1 F59      -0.591800
     28 C2         -11.1130     0.8260    -2.2590 c3         1 F59       0.131100
     29 O2         -10.6860     2.1820    -2.1160 oh         1 F59      -0.574800
     30 H16         -0.5430     0.0000    -0.9380 ha         1 F59       0.111500
     31 H17          1.9200     0.0000    -0.9390 ha         1 F59       0.103500
     32 H18          3.1580    -0.0000     1.1910 ha         1 F59       0.103000
     33 H19          1.9400    -0.0010     3.3330 ha         1 F59       0.103500
     34 H20         -0.5230    -0.0000     3.3540 ha         1 F59       0.111500
     35 H13         -2.3210     0.0010     3.3630 ha         1 F59       0.115500
     36 H14         -4.7810    -0.0010     3.3770 ha         1 F59       0.112500
     37 H11         -2.3420     0.0100    -0.9290 ha         1 F59       0.115500
     38 H10         -4.8010     0.0080    -0.9200 ha         1 F59       0.112500
     39 HN2         -6.6090    -0.0100    -0.7970 hn         1 F59       0.168500
     40 HN1         -8.6360    -0.0380    -1.9540 hn         1 F59       0.162500
     41 H1         -10.9590     0.4310    -0.1540 h2         1 F59       0.066700
     42 H5         -12.8780    -1.0430    -0.2470 h1         1 F59       0.037700
     43 H6         -12.4360    -3.3710    -2.1540 h1         1 F59      -0.004800
     44 H6A        -13.9680    -3.0190    -1.3440 h1         1 F59      -0.004800
     45 HO6        -12.8440    -4.4790    -0.0710 ho         1 F59       0.387000
     46 H4         -12.7370    -1.1300    -3.2820 h1         1 F59       0.019700
     47 HO4        -14.8550    -0.9560    -3.1620 ho         1 F59       0.398000
     48 H3         -13.0340     1.2200    -1.3750 h1         1 F59       0.032700
     49 HO3        -13.7430     2.1410    -3.1430 ho         1 F59       0.403000
     50 H2         -10.7260     0.4150    -3.1840 h1         1 F59       0.016700
     51 HO2        -10.4940     2.5430    -2.9650 ho         1 F59       0.398000
@<TRIPOS>BOND
     1     1     2 ar  
     2     1     6 ar  
     3     1    30 1   
     4     2     3 ar  
     5     2    31 1   
     6     3     4 ar  
     7     3    32 1   
     8     4     5 ar  
     9     4    33 1   
    10     5     6 ar  
    11     5    34 1   
    12     6     7 1   
    13     7     8 ar  
    14     7    10 ar  
    15     8     9 ar  
    16     8    35 1   
    17     9    12 ar  
    18     9    36 1   
    19    10    11 ar  
    20    10    37 1   
    21    11    12 ar  
    22    11    38 1   
    23    12    13 1   
    24    13    14 2   
    25    13    15 1   
    26    15    16 1   
    27    15    39 1   
    28    16    17 2   
    29    16    18 1   
    30    18    19 1   
    31    18    40 1   
    32    19    20 1   
    33    19    28 1   
    34    19    41 1   
    35    20    21 1   
    36    21    22 1   
    37    21    24 1   
    38    21    42 1   
    39    22    23 1   
    40    22    43 1   
    41    22    44 1   
    42    23    45 1   
    43    24    25 1   
    44    24    26 1   
    45    24    46 1   
    46    25    47 1   
    47    26    27 1   
    48    26    28 1   
    49    26    48 1   
    50    27    49 1   
    51    28    29 1   
    52    28    50 1   
    53    29    51 1   
@<TRIPOS>SUBSTRUCTURE
     1 F59         1 TEMP              0 ****  ****    0 ROOT
