@<TRIPOS>MOLECULE
F5B
   12    12     1     0     0
SMALL
bcc


@<TRIPOS>ATOM
      1 F6         -0.0190   -0.0020   -0.0060 f         1 F5B     -0.107900
      2 C6          1.3310   -0.0020   -0.0060 ca        1 F5B      0.133900
      3 C1          2.0300   -0.0000    1.2290 ca        1 F5B      0.066900
      4 F1          1.3530    0.0020    2.3970 f         1 F5B     -0.099900
      5 C5          2.0320   -0.0040   -1.2190 ca        1 F5B     -0.179000
      6 C4          3.4330   -0.0040   -1.2200 ca        1 F5B      0.133900
      7 F4          4.1070   -0.0050   -2.3900 f         1 F5B     -0.107900
      8 C3          4.1540   -0.0020    0.0020 ca        1 F5B      0.066900
      9 F3          5.5030   -0.0010   -0.0010 f         1 F5B     -0.099900
     10 C2          3.4460    0.0000    1.2290 ca        1 F5B      0.107900
     11 F2          4.1210    0.0020    2.3970 f         1 F5B     -0.096900
     12 H5          1.4810   -0.0050   -2.1730 ha        1 F5B      0.182000
@<TRIPOS>BOND
     1    1    2 1   
     2    2    3 ar  
     3    2    5 ar  
     4    3    4 1   
     5    3   10 ar  
     6    5    6 ar  
     7    5   12 1   
     8    6    7 1   
     9    6    8 ar  
    10    8    9 1   
    11    8   10 ar  
    12   10   11 1   
@<TRIPOS>SUBSTRUCTURE
     1 F5B         1 TEMP              0 ****  ****    0 ROOT
