@<TRIPOS>MOLECULE
molecule
   12    12     1     0     0
SMALL
bcc


@<TRIPOS>ATOM
      1 F6           0.0000     0.0000     0.0000 f          1 F5B      -0.107900
      2 C6           1.3510     0.0000     0.0000 ca         1 F5B       0.137900
      3 C1           2.0440     0.0000     1.2010 ca         1 F5B       0.069400
      4 F1           1.3680    -0.0010     2.3700 f          1 F5B      -0.102900
      5 C5           2.0440    -0.0040    -1.1980 ca         1 F5B      -0.182000
      6 C4           3.4280    -0.0050    -1.2000 ca         1 F5B       0.137900
      7 F4           4.1020    -0.0090    -2.3700 f          1 F5B      -0.107900
      8 C3           4.1220    -0.0000    -0.0000 ca         1 F5B       0.069400
      9 F3           5.4730     0.0010    -0.0010 f          1 F5B      -0.102900
     10 C2           3.4300     0.0010     1.2010 ca         1 F5B       0.109900
     11 F2           4.1060     0.0010     2.3710 f          1 F5B      -0.098900
     12 H5           1.5020    -0.0060    -2.1360 ha         1 F5B       0.179000
@<TRIPOS>BOND
     1     1     2 1
     2     2     3 ar
     3     2     5 ar
     4     3     4 1
     5     3    10 ar
     6     5     6 ar
     7     6     7 1
     8     6     8 ar
     9     8     9 1
    10     8    10 ar
    11    10    11 1
    12     5    12 1
@<TRIPOS>SUBSTRUCTURE
     1 F5B         1 TEMP              0 ****  ****    0 ROOT
