@<TRIPOS>MOLECULE
F5C
   18    18     1     0     0
SMALL
bcc


@<TRIPOS>ATOM
      1 CA          0.5820    0.6100   -0.8180 ce        1 F5C     -0.131200
      2 CB          1.6110    1.0770   -0.1070 cf        1 F5C     -0.205200
      3 CG          2.0670    0.5480    1.1730 ca        1 F5C      0.008200
      4 CD1         3.0490   -0.4650    1.2260 ca        1 F5C      0.148400
      5 FD1         3.5840   -0.9680    0.0920 f         1 F5C     -0.115400
      6 CD2         1.5650    1.0660    2.3860 ca        1 F5C      0.148400
      7 FD2         0.6500    2.0590    2.3870 f         1 F5C     -0.115400
      8 CE1         3.5100   -0.9710    2.4680 ca        1 F5C      0.052900
      9 FE1         4.4520   -1.9420    2.4990 f         1 F5C     -0.126900
     10 CE2         2.0180    0.5690    3.6350 ca        1 F5C      0.052900
     11 FE2         1.5250    1.0770    4.7890 f         1 F5C     -0.126900
     12 CZ          2.9900   -0.4560    3.6760 ca        1 F5C      0.077900
     13 FZ          3.4260   -0.9340    4.8640 f         1 F5C     -0.126900
     14 C          -0.3260   -0.5520   -0.4620 c         1 F5C      0.889800
     15 OXT        -1.2420   -0.8180   -1.2910 o         1 F5C     -0.823300
     16 O          -0.1320   -1.1820    0.6140 o         1 F5C     -0.823300
     17 H1          0.3250    1.0910   -1.7780 ha        1 F5C      0.110000
     18 H3          2.2100    1.9350   -0.4600 ha        1 F5C      0.104000
@<TRIPOS>BOND
     1    1    2 2   
     2    1   14 1   
     3    1   17 1   
     4    2    3 1   
     5    2   18 1   
     6    3    4 ar  
     7    3    6 ar  
     8    4    5 1   
     9    4    8 ar  
    10    6    7 1   
    11    6   10 ar  
    12    8    9 1   
    13    8   12 ar  
    14   10   11 1   
    15   10   12 ar  
    16   12   13 1   
    17   14   15 1   
    18   14   16 1   
@<TRIPOS>SUBSTRUCTURE
     1 F5C         1 TEMP              0 ****  ****    0 ROOT
