@<TRIPOS>MOLECULE
molecule
   18    18     1     0     0
SMALL
bcc


@<TRIPOS>ATOM
      1 CA           0.0000     0.0000     0.0000 ce         1 F5C      -0.092200
      2 CB           1.3510     0.0000     0.0000 cf         1 F5C      -0.206200
      3 CG           2.0860     0.0000     1.2710 ca         1 F5C      -0.041800
      4 CD1          3.1140    -0.9280     1.4910 ca         1 F5C       0.119900
      5 FD1          3.4320    -1.8270     0.5320 f          1 F5C      -0.104400
      6 CD2          1.7690     0.9320     2.2690 ca         1 F5C       0.119900
      7 FD2          0.7830     1.8330     2.0640 f          1 F5C      -0.104400
      8 CE1          3.8010    -0.9220     2.6900 ca         1 F5C       0.063900
      9 FE1          4.7910    -1.8170     2.9030 f          1 F5C      -0.121900
     10 CE2          2.4650     0.9260     3.4620 ca         1 F5C       0.063900
     11 FE2          2.1600     1.8220     4.4250 f          1 F5C      -0.121900
     12 CZ           3.4760    -0.0010     3.6750 ca         1 F5C       0.067900
     13 FZ           4.1530    -0.0000     4.8450 f          1 F5C      -0.122900
     14 C           -0.7090    -0.0060    -1.2260 c          1 F5C       0.855800
     15 OXT         -2.0580    -0.0060    -1.2250 o          1 F5C      -0.830300
     16 O           -0.1020    -0.0110    -2.2790 o          1 F5C      -0.830300
     17 H1          -0.5410    -0.0000     0.9380 ha         1 F5C       0.110000
     18 H3           1.8930    -0.0050    -0.9380 ha         1 F5C       0.174000
@<TRIPOS>BOND
     1    16    14 1
     2    14    15 1
     3    14     1 1
     4     1     2 2
     5     7     6 1
     6     2     3 1
     7     6     3 ar
     8     6    10 ar
     9    11    10 1
    10     3     4 ar
    11    10    12 ar
    12     4     5 1
    13     4     8 ar
    14    12     8 ar
    15    12    13 1
    16     8     9 1
    17     1    17 1
    18     2    18 1
@<TRIPOS>SUBSTRUCTURE
     1 F5C         1 TEMP              0 ****  ****    0 ROOT
