@<TRIPOS>MOLECULE
F5E
   75    78     1     0     0
SMALL
bcc


@<TRIPOS>ATOM
      1 C1           0.0000     0.0000     0.0000 c3         1 F5E       0.001400
      2 C2           1.5300     0.0000     0.0000 c3         1 F5E      -0.078700
      3 C3           2.0400     0.0000     1.4420 c3         1 F5E       0.001400
      4 C4           2.0390    -1.2500    -0.7210 c3         1 F5E       0.042900
      5 C5           1.6400    -1.1890    -2.1730 ca         1 F5E      -0.146300
      6 C6           0.4720    -1.8280    -2.5860 ca         1 F5E      -0.069000
      7 C7           0.0500    -1.8170    -3.8730 ca         1 F5E      -0.084000
      8 C8           0.7980    -1.1420    -4.8630 ca         1 F5E       0.002000
      9 C9           2.5600     0.1100    -5.6030 cc         1 F5E      -0.222100
     10 C10          2.0360    -0.4570    -4.4600 ca         1 F5E      -0.228000
     11 C11          2.4290    -0.5040    -3.0540 ca         1 F5E       0.122600
     12 C12          2.5500     2.5870    -1.9290 ca         1 F5E      -0.160500
     13 O1           3.4660     1.9920    -4.2400 o          1 F5E      -0.593800
     14 S            3.7840     1.7580    -2.8750 sy         1 F5E       1.037200
     15 O2           5.0350     2.1060    -2.2980 o          1 F5E      -0.593800
     16 N3           3.5880     0.1340    -2.6210 nu         1 F5E      -0.398500
     17 N1           0.6640    -0.9510    -6.1620 nc         1 F5E      -0.441400
     18 N2           1.7410    -0.1840    -6.6220 na         1 F5E       0.572800
     19 C28          1.9420     0.2370    -8.0110 c3         1 F5E       0.010600
     20 C13          2.8520     3.0660    -0.6670 ca         1 F5E       0.011000
     21 C14          1.8840     3.7150     0.0750 ca         1 F5E      -0.132000
     22 C15          0.6140     3.8860    -0.4430 ca         1 F5E      -0.031300
     23 C16          0.3120     3.4080    -1.7040 ca         1 F5E      -0.132000
     24 C17          1.2820     2.7630    -2.4490 ca         1 F5E       0.011000
     25 C18         -0.4430     4.5890     0.3700 c3         1 F5E       0.019900
     26 C19         -1.1980     3.5650     1.2180 c3         1 F5E      -0.027400
     27 C20         -2.2720     4.2790     2.0430 c3         1 F5E      -0.036400
     28 C21         -3.0270     3.2540     2.8920 c3         1 F5E      -0.024400
     29 C22         -4.1000     3.9680     3.7170 c3         1 F5E      -0.053700
     30 C23         -4.9380     2.9320     4.4710 c3         1 F5E      -0.026900
     31 C24         -5.9710     3.6540     5.3410 c3         1 F5E       0.156300
     32 N4          -5.2800     4.5370     6.2900 n3         1 F5E      -0.543600
     33 C25         -6.2310     5.1400     7.2330 c3         1 F5E       0.187100
     34 C26         -4.5070     5.5690     5.5880 c3         1 F5E       0.156300
     35 C27         -3.4310     4.9040     4.7260 c3         1 F5E      -0.026900
     36 H1          -0.3610     0.5660     0.8500 hc         1 F5E       0.004033
     37 H2          -0.3610     0.4530    -0.9150 hc         1 F5E       0.004033
     38 H3          -0.3610    -1.0190     0.0650 hc         1 F5E       0.004033
     39 H4           1.8910     0.8840    -0.5110 hc         1 F5E       0.041700
     40 H5           3.1200    -0.0820     1.4430 hc         1 F5E       0.004033
     41 H6           1.6140    -0.8410     1.9760 hc         1 F5E       0.004033
     42 H7           1.7470     0.9220     1.9290 hc         1 F5E       0.004033
     43 H8           1.6070    -2.1320    -0.2650 hc         1 F5E       0.017700
     44 H9           3.1190    -1.2960    -0.6450 hc         1 F5E       0.017700
     45 H10         -0.1200    -2.3570    -1.8480 ha         1 F5E       0.104000
     46 H11         -0.8650    -2.3290    -4.1450 ha         1 F5E       0.109000
     47 H12          3.4730     0.6910    -5.6650 h4         1 F5E       0.196000
     48 H13          4.3230    -0.3980    -2.2000 hn         1 F5E       0.350800
     49 H14          2.9560     0.0090    -8.3140 h1         1 F5E       0.025033
     50 H15          1.2460    -0.2910    -8.6520 h1         1 F5E       0.025033
     51 H16          1.7710     1.3030    -8.0930 h1         1 F5E       0.025033
     52 H17          3.8470     2.9320    -0.2610 ha         1 F5E       0.125000
     53 H18          2.1200     4.0900     1.0640 ha         1 F5E       0.114000
     54 H19         -0.6830     3.5440    -2.1110 ha         1 F5E       0.114000
     55 H20          1.0450     2.3880    -3.4380 ha         1 F5E       0.125000
     56 H21          0.0270     5.3190     1.0180 hc         1 F5E       0.022200
     57 H22         -1.1360     5.0890    -0.2950 hc         1 F5E       0.022200
     58 H23         -0.5040     3.0650     1.8830 hc         1 F5E       0.020200
     59 H24         -1.6670     2.8340     0.5700 hc         1 F5E       0.020200
     60 H25         -2.9650     4.7780     1.3780 hc         1 F5E       0.018700
     61 H26         -1.8030     5.0090     2.6910 hc         1 F5E       0.018700
     62 H27         -3.4960     2.5240     2.2430 hc         1 F5E       0.017700
     63 H28         -2.3330     2.7540     3.5570 hc         1 F5E       0.017700
     64 H29         -4.7430     4.5440     3.0620 hc         1 F5E       0.027700
     65 H30         -4.2910     2.3340     5.1000 hc         1 F5E       0.022700
     66 H31         -5.4490     2.2940     3.7590 hc         1 F5E       0.022700
     67 H32         -6.5530     2.9230     5.8890 h1         1 F5E       0.007200
     68 H33         -6.6240     4.2440     4.7100 h1         1 F5E       0.007200
     69 H35         -6.7560     4.3570     7.7670 h1         1 F5E      -0.000633
     70 H36         -6.9440     5.7470     6.6880 h1         1 F5E      -0.000633
     71 H37         -5.6930     5.7610     7.9390 h1         1 F5E      -0.000633
     72 H38         -5.1690     6.1470     4.9550 h1         1 F5E       0.007200
     73 H39         -4.0340     6.2200     6.3140 h1         1 F5E       0.007200
     74 H40         -2.8720     5.6650     4.1950 hc         1 F5E       0.022700
     75 H41         -2.7630     4.3330     5.3590 hc         1 F5E       0.022700
@<TRIPOS>BOND
     1     1     2 1   
     2     1    36 1   
     3     1    37 1   
     4     1    38 1   
     5     2     3 1   
     6     2     4 1   
     7     2    39 1   
     8     3    40 1   
     9     3    41 1   
    10     3    42 1   
    11     4     5 1   
    12     4    43 1   
    13     4    44 1   
    14     5     6 ar  
    15     5    11 ar  
    16     6     7 ar  
    17     6    45 1   
    18     7     8 ar  
    19     7    46 1   
    20     8    10 ar  
    21     8    17 2   
    22     9    10 2   
    23     9    18 1   
    24     9    47 1   
    25    10    11 ar  
    26    11    16 1   
    27    12    14 1   
    28    12    20 ar  
    29    12    24 ar  
    30    13    14 2   
    31    14    15 2   
    32    14    16 1   
    33    16    48 1   
    34    17    18 1   
    35    18    19 1   
    36    19    49 1   
    37    19    50 1   
    38    19    51 1   
    39    20    21 ar  
    40    20    52 1   
    41    21    22 ar  
    42    21    53 1   
    43    22    23 ar  
    44    22    25 1   
    45    23    24 ar  
    46    23    54 1   
    47    24    55 1   
    48    25    26 1   
    49    25    56 1   
    50    25    57 1   
    51    26    27 1   
    52    26    58 1   
    53    26    59 1   
    54    27    28 1   
    55    27    60 1   
    56    27    61 1   
    57    28    29 1   
    58    28    62 1   
    59    28    63 1   
    60    29    30 1   
    61    29    35 1   
    62    29    64 1   
    63    30    31 1   
    64    30    65 1   
    65    30    66 1   
    66    31    32 1   
    67    31    67 1   
    68    31    68 1   
    69    32    33 1   
    70    32    34 1   
    71    33    69 1   
    72    33    70 1   
    73    33    71 1   
    74    34    35 1   
    75    34    72 1   
    76    34    73 1   
    77    35    74 1   
    78    35    75 1   
@<TRIPOS>SUBSTRUCTURE
     1 F5E         1 TEMP              0 ****  ****    0 ROOT
