@<TRIPOS>MOLECULE
F5J
   43    46     1     0     0
SMALL
bcc


@<TRIPOS>ATOM
      1 C7           0.0000     0.0000     0.0000 cc         1 F5J      -0.243100
      2 C6           1.3430     0.0000     0.0000 cd         1 F5J      -0.131200
      3 C1          -5.4450    -3.9380    -1.8450 ca         1 F5J      -0.096000
      4 C5          -5.9120    -1.5900    -1.9800 ca         1 F5J      -0.088000
      5 C4          -4.3830    -2.4230    -0.3330 ca         1 F5J      -0.088000
      6 C3          -6.0770    -2.8790    -2.4670 ca         1 F5J      -0.100500
      7 C2          -4.6440    -3.7130    -0.7340 ca         1 F5J      -0.100500
      8 C8           1.8680    -0.0010     4.0750 ca         1 F5J       0.640900
      9 C9           1.7660     0.0000     1.3990 ca         1 F5J      -0.356400
     10 C10         -5.0660    -1.3630    -0.9140 ca         1 F5J      -0.118300
     11 C11          0.5860    -0.0010     2.1650 ca         1 F5J       0.279800
     12 C12          3.0010    -0.0010     2.0650 ca         1 F5J       0.590200
     13 C13         -3.8090     1.4570     1.3890 c3         1 F5J       0.136100
     14 C14         -2.3640     1.4420     1.9350 c3         1 F5J       0.122100
     15 C15         -4.0260     0.0220     0.8600 c3         1 F5J       0.143100
     16 C16         -1.8790    -0.0000     1.6730 c3         1 F5J       0.142800
     17 C17         -4.8680     0.0460    -0.4180 c3         1 F5J       0.252400
     18 N18          0.6880    -0.0010     3.4940 nb         1 F5J      -0.621000
     19 N19          3.0010    -0.0000     3.3950 nb         1 F5J      -0.670000
     20 N20         -0.4640    -0.0010     1.2890 na         1 F5J       0.293900
     21 N21          4.1880    -0.0000     1.3550 nv         1 F5J      -0.652500
     22 O22         -2.6980    -0.4720     0.5810 os         1 F5J      -0.392600
     23 O23         -4.7380     1.7510     2.4340 oh         1 F5J      -0.541800
     24 O24         -2.3560     1.7260     3.3350 oh         1 F5J      -0.538800
     25 O25         -6.1390     0.6360    -0.1390 oh         1 F5J      -0.567800
     26 H1          -0.6360     0.0370    -0.8760 h4         1 F5J       0.153000
     27 H2           1.9800     0.0010    -0.8760 ha         1 F5J       0.132000
     28 H4          -6.4080    -0.7590    -2.4680 ha         1 F5J       0.114500
     29 H5          -3.7590    -2.2400     0.5340 ha         1 F5J       0.114500
     30 H6          -6.7030    -3.0550    -3.3340 ha         1 F5J       0.103000
     31 H7          -4.1480    -4.5440    -0.2460 ha         1 F5J       0.103000
     32 H8           1.9380    -0.0010     5.1560 h5         1 F5J      -0.002900
     33 H9          -3.8990     2.1740     0.5810 h1         1 F5J       0.007700
     34 H10         -1.7490     2.1510     1.3940 h1         1 F5J       0.017700
     35 H11         -4.5000    -0.5880     1.6190 h1         1 F5J       0.061700
     36 H12         -2.0320    -0.6240     2.5450 h2         1 F5J       0.068700
     37 H13         -4.3580     0.6280    -1.1760 h1         1 F5J       0.007700
     38 H14          4.6510     0.8640     1.1550 hn         1 F5J       0.279300
     39 H15          4.5730    -0.8620     1.0240 hn         1 F5J       0.279300
     40 H16         -5.1640     2.5720     2.2540 ho         1 F5J       0.387000
     41 H17         -2.1470     2.6360     3.4700 ho         1 F5J       0.391000
     42 H18         -6.2850     1.3590    -0.7260 ho         1 F5J       0.387000
     43 H3          -5.5740    -4.9450    -2.2250 ha         1 F5J       0.102000
@<TRIPOS>BOND
     1     1     2 2   
     2     1    20 1   
     3     1    26 1   
     4     2     9 1   
     5     2    27 1   
     6     3     6 ar  
     7     3     7 ar  
     8     3    43 1   
     9     4     6 ar  
    10     4    10 ar  
    11     4    28 1   
    12     5     7 ar  
    13     5    10 ar  
    14     5    29 1   
    15     6    30 1   
    16     7    31 1   
    17     8    18 ar  
    18     8    19 ar  
    19     8    32 1   
    20     9    11 ar  
    21     9    12 ar  
    22    10    17 1   
    23    11    18 ar  
    24    11    20 1   
    25    12    19 ar  
    26    12    21 1   
    27    13    14 1   
    28    13    15 1   
    29    13    23 1   
    30    13    33 1   
    31    14    16 1   
    32    14    24 1   
    33    14    34 1   
    34    15    17 1   
    35    15    22 1   
    36    15    35 1   
    37    16    20 1   
    38    16    22 1   
    39    16    36 1   
    40    17    25 1   
    41    17    37 1   
    42    21    38 1   
    43    21    39 1   
    44    23    40 1   
    45    24    41 1   
    46    25    42 1   
@<TRIPOS>SUBSTRUCTURE
     1 F5J         1 TEMP              0 ****  ****    0 ROOT
