@<TRIPOS>MOLECULE
F5M
   44    48     1     0     0
SMALL
bcc


@<TRIPOS>ATOM
      1 C1           0.0000     0.0000     0.0000 ca         1 F5M       0.162100
      2 O1          -0.6720     0.0000    -1.1790 oh         1 F5M      -0.511100
      3 C2           1.3850     0.0000     0.0000 ca         1 F5M      -0.256300
      4 O2           3.4250     0.0010     1.2120 os         1 F5M      -0.346800
      5 C3           2.0770     0.0000     1.2030 ca         1 F5M       0.410000
      6 O3           7.4900     0.0000     3.4340 o          1 F5M      -0.657100
      7 C4           4.1410     0.0010     2.3560 cc         1 F5M       0.369700
      8 O4           2.5310    -2.4290     4.1910 o          1 F5M      -0.859800
      9 C5           5.5200     0.0010     2.3020 cd         1 F5M      -0.341200
     10 O5           1.8780    -3.5470     5.9930 o          1 F5M      -0.859800
     11 C6           6.2660     0.0000     3.4850 c          1 F5M       0.640500
     12 C7           5.6170     0.0000     4.7370 cd         1 F5M      -0.248200
     13 C8           4.2610    -0.0000     4.8020 cc         1 F5M       0.018800
     14 C9           3.4990    -0.0000     3.6190 cc         1 F5M      -0.200100
     15 C10          2.0870     0.0010     3.6800 cd         1 F5M       0.194000
     16 C11          1.3520     0.0010     2.4120 ca         1 F5M      -0.200300
     17 C12         -0.0500     0.0010     2.3930 ca         1 F5M      -0.011000
     18 C13         -0.7110     0.0070     1.2010 ca         1 F5M      -0.184000
     19 C14          1.3790     0.0010     4.9700 ca         1 F5M      -0.072000
     20 C15          0.7690     1.1680     5.4370 ca         1 F5M      -0.097000
     21 C16          0.1070     1.1660     6.6460 ca         1 F5M      -0.162000
     22 C17          0.0420     0.0050     7.4090 ca         1 F5M      -0.136400
     23 C18          0.6450    -1.1660     6.9600 ca         1 F5M      -0.093000
     24 C19          1.3110    -1.1800     5.7410 ca         1 F5M      -0.061600
     25 C20          1.9460    -2.4220     5.2550 c          1 F5M       0.961200
     26 NAB         -0.6310     0.0150     8.6330 n          1 F5M       0.048400
     27 CAZ         -1.2490     1.0820     9.1690 c          1 F5M       0.573200
     28 CBA         -1.8360     0.6790    10.4650 cc         1 F5M      -0.164200
     29 CBB         -1.5380    -0.6190    10.6410 cd         1 F5M      -0.164200
     30 CBC         -0.7650    -1.0430     9.4540 c          1 F5M       0.573200
     31 OBJ         -0.3240    -2.1570     9.2530 o          1 F5M      -0.580000
     32 OBK         -1.3140     2.1880     8.6730 o          1 F5M      -0.580000
     33 HO1         -0.7880    -0.8870    -1.4750 ho         1 F5M       0.404000
     34 H2           1.9270     0.0560    -0.9370 ha         1 F5M       0.124000
     35 H5           6.0240     0.0370     1.3430 ha         1 F5M       0.126000
     36 H7           6.2020     0.0030     5.6490 ha         1 F5M       0.114000
     37 H8           3.7660    -0.0000     5.7660 ha         1 F5M       0.113000
     38 H12         -0.6060     0.0070     3.3230 ha         1 F5M       0.121000
     39 H13         -1.7940     0.0180     1.1860 ha         1 F5M       0.111000
     40 H15          0.8160     2.0750     4.8470 ha         1 F5M       0.100000
     41 H16         -0.3650     2.0730     7.0030 ha         1 F5M       0.149000
     42 H18          0.5900    -2.0680     7.5580 ha         1 F5M       0.186000
     43 HBA         -2.8080     1.0560    10.7600 ha         1 F5M       0.143000
     44 HBB         -1.2650    -0.9840    11.6240 ha         1 F5M       0.143000
@<TRIPOS>BOND
     1     1     2 1   
     2     1     3 ar  
     3     1    18 ar  
     4     2    33 1   
     5     3     5 ar  
     6     3    34 1   
     7     4     5 1   
     8     4     7 1   
     9     5    16 ar  
    10     6    11 2   
    11     7     9 2   
    12     7    14 1   
    13     8    25 1   
    14     9    11 1   
    15     9    35 1   
    16    10    25 1   
    17    11    12 1   
    18    12    13 2   
    19    12    36 1   
    20    13    14 1   
    21    13    37 1   
    22    14    15 2   
    23    15    16 1   
    24    15    19 1   
    25    16    17 ar  
    26    17    18 ar  
    27    17    38 1   
    28    18    39 1   
    29    19    20 ar  
    30    19    24 ar  
    31    20    21 ar  
    32    20    40 1   
    33    21    22 ar  
    34    21    41 1   
    35    22    23 ar  
    36    22    26 1   
    37    23    24 ar  
    38    23    42 1   
    39    24    25 1   
    40    26    27 1   
    41    26    30 1   
    42    27    28 1   
    43    27    32 2   
    44    28    29 2   
    45    28    43 1   
    46    29    30 1   
    47    29    44 1   
    48    30    31 2   
@<TRIPOS>SUBSTRUCTURE
     1 F5M         1 TEMP              0 ****  ****    0 ROOT
