@<TRIPOS>MOLECULE
F5N
   32    34     1     0     0
SMALL
bcc


@<TRIPOS>ATOM
      1 O1           0.0000     0.0000     0.0000 o          1 F5N      -0.606100
      2 C2           1.2130     0.0000     0.0000 c          1 F5N       0.559100
      3 C3           1.9660     0.0000     1.3050 c3         1 F5N      -0.003200
      4 C4           0.9870    -0.0000     2.4510 cc         1 F5N       0.079400
      5 C5           0.9560    -0.8970     3.4610 cd         1 F5N      -0.444100
      6 N6          -0.0770    -0.5420     4.2850 na         1 F5N       0.627700
      7 C7          -0.5630    -1.0820     5.4410 cc         1 F5N      -0.282300
      8 C8          -1.6180    -0.5220     6.0700 cd         1 F5N      -0.083000
      9 C9          -2.2330     0.6250     5.5400 cd         1 F5N      -0.140000
     10 C10         -1.7580     1.1720     4.3880 cc         1 F5N      -0.015000
     11 C11         -0.6550     0.5760     3.7440 cd         1 F5N      -0.251300
     12 N12          0.0080     0.8880     2.6400 nc         1 F5N      -0.209600
     13 N13          1.8870    -0.0050    -1.1660 ns         1 F5N      -0.046100
     14 C14          1.1910    -0.1070    -2.3770 ca         1 F5N      -0.088400
     15 C15         -0.0540     0.4920    -2.5160 ca         1 F5N      -0.119500
     16 C16         -0.7390     0.3890    -3.7100 ca         1 F5N      -0.085000
     17 C17         -0.1860    -0.3110    -4.7680 ca         1 F5N      -0.117000
     18 C18          1.0520    -0.9100    -4.6320 ca         1 F5N      -0.085000
     19 C19          1.7450    -0.8040    -3.4420 ca         1 F5N      -0.119500
     20 H3           2.5890    -0.8840     1.3630 hc         1 F5N       0.030200
     21 H3A          2.5890     0.8850     1.3630 hc         1 F5N       0.030200
     22 H5           1.7130    -1.6440     3.6730 h4         1 F5N       0.158000
     23 H7          -0.0960    -1.9660     5.8580 h4         1 F5N       0.135000
     24 H8          -1.9930    -0.9600     6.9870 ha         1 F5N       0.114000
     25 H9          -3.0800     1.0720     6.0460 ha         1 F5N       0.116000
     26 H10         -2.2240     2.0560     3.9700 ha         1 F5N       0.124000
     27 HN13         2.8830     0.0980    -1.1690 hn         1 F5N       0.164500
     28 H15         -0.4880     1.0400    -1.6880 ha         1 F5N       0.126000
     29 H16         -1.7100     0.8570    -3.8200 ha         1 F5N       0.102000
     30 H17         -0.7270    -0.3930    -5.7030 ha         1 F5N       0.101000
     31 H18          1.4830    -1.4560    -5.4620 ha         1 F5N       0.102000
     32 H19          2.7150    -1.2740    -3.3360 ha         1 F5N       0.126000
@<TRIPOS>BOND
     1     1     2 2   
     2     2     3 1   
     3     2    13 1   
     4     3     4 1   
     5     3    20 1   
     6     3    21 1   
     7     4     5 2   
     8     4    12 1   
     9     5     6 1   
    10     5    22 1   
    11     6     7 1   
    12     6    11 1   
    13     7     8 2   
    14     7    23 1   
    15     8     9 1   
    16     8    24 1   
    17     9    10 2   
    18     9    25 1   
    19    10    11 1   
    20    10    26 1   
    21    11    12 2   
    22    13    14 1   
    23    13    27 1   
    24    14    15 ar  
    25    14    19 ar  
    26    15    16 ar  
    27    15    28 1   
    28    16    17 ar  
    29    16    29 1   
    30    17    18 ar  
    31    17    30 1   
    32    18    19 ar  
    33    18    31 1   
    34    19    32 1   
@<TRIPOS>SUBSTRUCTURE
     1 F5N         1 TEMP              0 ****  ****    0 ROOT
