@<TRIPOS>MOLECULE
F5Q
   74    78     1     0     0
SMALL
bcc


@<TRIPOS>ATOM
      1 C4           0.0000     0.0000     0.0000 ca         1 F5Q      -0.154300
      2 C14          0.3850    -4.9350    -1.7840 ca         1 F5Q      -0.033300
      3 C5           1.4080     0.0000     0.0000 ca         1 F5Q       0.077600
      4 C6           2.0870     0.0000     1.2070 ca         1 F5Q       0.012600
      5 C11          2.0230    -2.7100    -1.6750 ca         1 F5Q      -0.162500
      6 C7           4.0110    -1.0930     2.0560 c3         1 F5Q       0.143800
      7 C8           4.9220    -0.4550     3.1250 c3         1 F5Q      -0.035900
      8 C9           5.3150     0.9030     2.4840 c3         1 F5Q      -0.035900
      9 C10          4.0140     1.2820     1.7330 c3         1 F5Q       0.143800
     10 C12          1.3190    -2.9950    -2.8300 ca         1 F5Q       0.007500
     11 C13          0.4990    -4.1070    -2.8840 ca         1 F5Q      -0.131500
     12 N1           3.4890     0.0010     1.2170 nh         1 F5Q      -0.376000
     13 N2           2.1130    -0.0010    -1.2060 nu         1 F5Q      -0.395500
     14 C3          -0.7010    -0.0010     1.2330 ca         1 F5Q       0.374600
     15 N3          -7.5770    -9.0670    -1.9900 n3         1 F5Q      -0.544600
     16 O2           3.9480    -1.4960    -0.5110 o          1 F5Q      -0.574800
     17 S            3.0680    -1.2930    -1.6060 sy         1 F5Q       1.028200
     18 O1           3.5180    -1.0620    -2.9350 o          1 F5Q      -0.574800
     19 C27         -0.7310    -0.0060    -1.2010 ca         1 F5Q      -0.058000
     20 C28         -2.0950    -0.0120    -1.1260 ca         1 F5Q      -0.220300
     21 C29         -2.7230    -0.0110     0.1180 ca         1 F5Q       0.409200
     22 N4          -2.0390    -0.0010     1.2360 nb         1 F5Q      -0.567000
     23 C2           0.0230     0.0000     2.4360 ca         1 F5Q      -0.135300
     24 C1           1.3850    -0.0000     2.4140 ca         1 F5Q      -0.120000
     25 C16          1.9080    -3.5390    -0.5740 ca         1 F5Q       0.007500
     26 C15          1.0890    -4.6500    -0.6280 ca         1 F5Q      -0.131500
     27 C18         -1.9220    -5.7550    -1.3820 c3         1 F5Q      -0.024400
     28 C19         -2.8330    -6.9820    -1.4390 c3         1 F5Q      -0.037400
     29 C20         -4.2400    -6.5940    -0.9810 c3         1 F5Q      -0.024400
     30 C21         -5.1520    -7.8210    -1.0390 c3         1 F5Q      -0.053700
     31 C25         -6.5260    -7.4650    -0.4650 c3         1 F5Q      -0.026900
     32 C24         -7.4520    -8.6780    -0.5800 c3         1 F5Q       0.156800
     33 C23         -6.2780    -9.4590    -2.5510 c3         1 F5Q       0.156800
     34 C22         -5.3170    -8.2680    -2.4940 c3         1 F5Q      -0.026900
     35 H1           3.1900    -1.6130     2.5350 h1         1 F5Q       0.024200
     36 H2           4.5850    -1.7810     1.4470 h1         1 F5Q       0.024200
     37 H3           5.8010    -1.0660     3.2920 hc         1 F5Q       0.018450
     38 H4           4.3750    -0.2970     4.0470 hc         1 F5Q       0.018450
     39 H5           5.5470     1.6360     3.2470 hc         1 F5Q       0.018450
     40 H6           6.1380     0.7780     1.7910 hc         1 F5Q       0.018450
     41 H7           3.3030     1.7310     2.4170 h1         1 F5Q       0.024200
     42 H8           4.2360     1.9550     0.9140 h1         1 F5Q       0.024200
     43 H9           1.4080    -2.3450    -3.6930 ha         1 F5Q       0.121000
     44 H10         -0.0530    -4.3300    -3.7890 ha         1 F5Q       0.112000
     45 H11          2.0710     0.7960    -1.8100 hn         1 F5Q       0.345800
     46 H13         -0.2270    -0.0060    -2.1600 ha         1 F5Q       0.113000
     47 H14         -2.6880    -0.0200    -2.0320 ha         1 F5Q       0.112000
     48 H15         -3.8060    -0.0160     0.1620 h4         1 F5Q      -0.021900
     49 H16         -0.5020     0.0000     3.3830 ha         1 F5Q       0.118000
     50 H17          1.9330    -0.0000     3.3480 ha         1 F5Q       0.117000
     51 H18          2.4600    -3.3160     0.3310 ha         1 F5Q       0.121000
     52 H19          1.0000    -5.3000     0.2340 ha         1 F5Q       0.112000
     53 H22         -1.8820    -5.3820    -0.3660 hc         1 F5Q       0.018200
     54 H23         -2.3130    -4.9840    -2.0340 hc         1 F5Q       0.018200
     55 H24         -2.4410    -7.7540    -0.7870 hc         1 F5Q       0.018700
     56 H25         -2.8740    -7.3550    -2.4560 hc         1 F5Q       0.018700
     57 H26         -4.6320    -5.8220    -1.6330 hc         1 F5Q       0.018200
     58 H27         -4.1990    -6.2220     0.0350 hc         1 F5Q       0.018200
     59 H28         -4.7180    -8.6280    -0.4610 hc         1 F5Q       0.027700
     60 H29         -6.4200    -7.1900     0.5780 hc         1 F5Q       0.022450
     61 H30         -6.9460    -6.6360    -1.0220 hc         1 F5Q       0.022450
     62 H31         -8.4300    -8.4230    -0.1890 h1         1 F5Q       0.006950
     63 H32         -7.0360    -9.5040    -0.0150 h1         1 F5Q       0.006950
     64 H33         -8.6660   -10.3810    -3.2070 h1         1 F5Q      -0.000300
     65 H34         -8.2390   -11.0200    -1.6130 h1         1 F5Q      -0.000300
     66 H35         -9.5230    -9.8130    -1.7670 h1         1 F5Q      -0.000300
     67 H36         -5.8690   -10.2790    -1.9730 h1         1 F5Q       0.006950
     68 H37         -6.4080    -9.7660    -3.5820 h1         1 F5Q       0.006950
     69 H38         -4.3530    -8.5630    -2.8920 hc         1 F5Q       0.022450
     70 H39         -5.7210    -7.4510    -3.0790 hc         1 F5Q       0.022450
     71 C17         -0.5140    -6.1430    -1.8390 c3         1 F5Q       0.019900
     72 C26         -8.5670   -10.1410    -2.1550 c3         1 F5Q       0.187100
     73 H20         -0.1220    -6.9140    -1.1860 hc         1 F5Q       0.021700
     74 H21         -0.5540    -6.5170    -2.8550 hc         1 F5Q       0.021700
@<TRIPOS>BOND
     1     1     3 ar  
     2     1    14 ar  
     3     1    19 ar  
     4     2    11 ar  
     5     2    26 ar  
     6     2    71 1   
     7     3     4 ar  
     8     3    13 1   
     9     4    12 1   
    10     4    24 ar  
    11     5    10 ar  
    12     5    17 1   
    13     5    25 ar  
    14     6     7 1   
    15     6    12 1   
    16     6    35 1   
    17     6    36 1   
    18     7     8 1   
    19     7    37 1   
    20     7    38 1   
    21     8     9 1   
    22     8    39 1   
    23     8    40 1   
    24     9    12 1   
    25     9    41 1   
    26     9    42 1   
    27    10    11 ar  
    28    10    43 1   
    29    11    44 1   
    30    13    17 1   
    31    13    45 1   
    32    14    22 ar  
    33    14    23 ar  
    34    15    32 1   
    35    15    33 1   
    36    15    72 1   
    37    16    17 2   
    38    17    18 2   
    39    19    20 ar  
    40    19    46 1   
    41    20    21 ar  
    42    20    47 1   
    43    21    22 ar  
    44    21    48 1   
    45    23    24 ar  
    46    23    49 1   
    47    24    50 1   
    48    25    26 ar  
    49    25    51 1   
    50    26    52 1   
    51    27    28 1   
    52    27    53 1   
    53    27    54 1   
    54    27    71 1   
    55    28    29 1   
    56    28    55 1   
    57    28    56 1   
    58    29    30 1   
    59    29    57 1   
    60    29    58 1   
    61    30    31 1   
    62    30    34 1   
    63    30    59 1   
    64    31    32 1   
    65    31    60 1   
    66    31    61 1   
    67    32    62 1   
    68    32    63 1   
    69    33    34 1   
    70    33    67 1   
    71    33    68 1   
    72    34    69 1   
    73    34    70 1   
    74    64    72 1   
    75    65    72 1   
    76    66    72 1   
    77    71    73 1   
    78    71    74 1   
@<TRIPOS>SUBSTRUCTURE
     1 F5Q         1 TEMP              0 ****  ****    0 ROOT
