@<TRIPOS>MOLECULE
molecule
   74    78     1     0     0
SMALL
bcc


@<TRIPOS>ATOM
      1 C4           0.0000     0.0000     0.0000 ca         1 F5Q      -0.154300
      2 C14          0.3850    -4.9350    -1.7840 ca         1 F5Q      -0.025300
      3 C5           1.4080     0.0000     0.0000 ca         1 F5Q       0.154600
      4 C6           2.0870     0.0000     1.2070 ca         1 F5Q       0.082600
      5 C11          2.0230    -2.7100    -1.6750 ca         1 F5Q      -0.317500
      6 C7           4.0110    -1.0930     2.0560 c3         1 F5Q       0.162300
      7 C8           4.9220    -0.4550     3.1250 c3         1 F5Q      -0.098900
      8 C9           5.3150     0.9030     2.4840 c3         1 F5Q      -0.098900
      9 C10          4.0140     1.2820     1.7330 c3         1 F5Q       0.162300
     10 C12          1.3190    -2.9950    -2.8300 ca         1 F5Q      -0.024500
     11 C13          0.4990    -4.1070    -2.8840 ca         1 F5Q      -0.150500
     12 N1           3.4890     0.0010     1.2170 nh         1 F5Q      -0.583000
     13 N2           2.1130    -0.0010    -1.2060 nu         1 F5Q      -0.764500
     14 C3          -0.7010    -0.0010     1.2330 ca         1 F5Q       0.416600
     15 N3          -7.5770    -9.0670    -1.9900 n3         1 F5Q      -0.731600
     16 O2           3.9480    -1.4960    -0.5110 o          1 F5Q      -0.623800
     17 S            3.0680    -1.2930    -1.6060 sy         1 F5Q       1.421200
     18 O1           3.5180    -1.0620    -2.9350 o          1 F5Q      -0.623800
     19 C27         -0.7310    -0.0060    -1.2010 ca         1 F5Q      -0.074000
     20 C28         -2.0950    -0.0120    -1.1260 ca         1 F5Q      -0.254300
     21 C29         -2.7230    -0.0110     0.1180 ca         1 F5Q       0.430200
     22 N4          -2.0390    -0.0010     1.2360 nb         1 F5Q      -0.678000
     23 C2           0.0230     0.0000     2.4360 ca         1 F5Q      -0.156300
     24 C1           1.3850    -0.0000     2.4140 ca         1 F5Q      -0.148000
     25 C16          1.9080    -3.5390    -0.5740 ca         1 F5Q      -0.024500
     26 C15          1.0890    -4.6500    -0.6280 ca         1 F5Q      -0.150500
     27 C18         -1.9220    -5.7550    -1.3820 c3         1 F5Q      -0.077400
     28 C19         -2.8330    -6.9820    -1.4390 c3         1 F5Q      -0.084400
     29 C20         -4.2400    -6.5940    -0.9810 c3         1 F5Q      -0.076400
     30 C21         -5.1520    -7.8210    -1.0390 c3         1 F5Q      -0.072700
     31 C25         -6.5260    -7.4650    -0.4650 c3         1 F5Q      -0.074900
     32 C24         -7.4520    -8.6780    -0.5800 c3         1 F5Q       0.164300
     33 C23         -6.2780    -9.4590    -2.5510 c3         1 F5Q       0.164300
     34 C22         -5.3170    -8.2680    -2.4940 c3         1 F5Q      -0.074900
     35 H1           3.1900    -1.6130     2.5350 h1         1 F5Q       0.052450
     36 H2           4.5850    -1.7810     1.4470 h1         1 F5Q       0.052450
     37 H3           5.8010    -1.0660     3.2920 hc         1 F5Q       0.049950
     38 H4           4.3750    -0.2970     4.0470 hc         1 F5Q       0.049950
     39 H5           5.5470     1.6360     3.2470 hc         1 F5Q       0.049950
     40 H6           6.1380     0.7780     1.7910 hc         1 F5Q       0.049950
     41 H7           3.3030     1.7310     2.4170 h1         1 F5Q       0.052450
     42 H8           4.2360     1.9550     0.9140 h1         1 F5Q       0.052450
     43 H9           1.4080    -2.3450    -3.6930 ha         1 F5Q       0.147500
     44 H10         -0.0530    -4.3300    -3.7890 ha         1 F5Q       0.136500
     45 H11          2.0710     0.7960    -1.8100 hn         1 F5Q       0.461800
     46 H13         -0.2270    -0.0060    -2.1600 ha         1 F5Q       0.141000
     47 H14         -2.6880    -0.0200    -2.0320 ha         1 F5Q       0.139000
     48 H15         -3.8060    -0.0160     0.1620 h4         1 F5Q       0.024100
     49 H16         -0.5020     0.0000     3.3830 ha         1 F5Q       0.151000
     50 H17          1.9330    -0.0000     3.3480 ha         1 F5Q       0.143000
     51 H18          2.4600    -3.3160     0.3310 ha         1 F5Q       0.147500
     52 H19          1.0000    -5.3000     0.2340 ha         1 F5Q       0.136500
     53 H22         -1.8820    -5.3820    -0.3660 hc         1 F5Q       0.046700
     54 H23         -2.3130    -4.9840    -2.0340 hc         1 F5Q       0.046700
     55 H24         -2.4410    -7.7540    -0.7870 hc         1 F5Q       0.042700
     56 H25         -2.8740    -7.3550    -2.4560 hc         1 F5Q       0.042700
     57 H26         -4.6320    -5.8220    -1.6330 hc         1 F5Q       0.043700
     58 H27         -4.1990    -6.2220     0.0350 hc         1 F5Q       0.043700
     59 H28         -4.7180    -8.6280    -0.4610 hc         1 F5Q       0.048700
     60 H29         -6.4200    -7.1900     0.5780 hc         1 F5Q       0.049200
     61 H30         -6.9460    -6.6360    -1.0220 hc         1 F5Q       0.049200
     62 H31         -8.4300    -8.4230    -0.1890 h1         1 F5Q       0.032200
     63 H32         -7.0360    -9.5040    -0.0150 h1         1 F5Q       0.032200
     64 H33         -8.6660   -10.3810    -3.2070 h1         1 F5Q       0.031033
     65 H34         -8.2390   -11.0200    -1.6130 h1         1 F5Q       0.031033
     66 H35         -9.5230    -9.8130    -1.7670 h1         1 F5Q       0.031033
     67 H36         -5.8690   -10.2790    -1.9730 h1         1 F5Q       0.032200
     68 H37         -6.4080    -9.7660    -3.5820 h1         1 F5Q       0.032200
     69 H38         -4.3530    -8.5630    -2.8920 hc         1 F5Q       0.049200
     70 H39         -5.7210    -7.4510    -3.0790 hc         1 F5Q       0.049200
     71 C17         -0.5140    -6.1430    -1.8390 c3         1 F5Q      -0.045100
     72 C26         -8.5670   -10.1410    -2.1550 c3         1 F5Q       0.153100
     73 H20         -0.1220    -6.9140    -1.1860 hc         1 F5Q       0.052700
     74 H21         -0.5540    -6.5170    -2.8550 hc         1 F5Q       0.052700
@<TRIPOS>BOND
     1    72    15 1
     2    32    15 1
     3    32    31 1
     4    30    31 1
     5    30    34 1
     6    30    29 1
     7    15    33 1
     8    33    34 1
     9    29    28 1
    10    27    71 1
    11    27    28 1
    12    71     2 1
    13     2    26 ar
    14     2    11 ar
    15    26    25 ar
    16    11    10 ar
    17    25     5 ar
    18    10     5 ar
    19     5    17 1
    20    18    17 2
    21    17    16 2
    22    17    13 1
    23    13     3 1
    24    19    20 ar
    25    19     1 ar
    26    20    21 ar
    27     3     1 ar
    28     3     4 ar
    29     1    14 ar
    30     6    12 1
    31     6     7 1
    32    21    22 ar
    33    12     4 1
    34    12     9 1
    35     4    24 ar
    36    14    22 ar
    37    14    23 ar
    38     7     8 1
    39     8     9 1
    40    24    23 ar
    41     6    35 1
    42     6    36 1
    43     7    37 1
    44     7    38 1
    45     8    39 1
    46     8    40 1
    47     9    41 1
    48     9    42 1
    49    10    43 1
    50    11    44 1
    51    13    45 1
    52    19    46 1
    53    20    47 1
    54    21    48 1
    55    23    49 1
    56    24    50 1
    57    25    51 1
    58    26    52 1
    59    71    73 1
    60    71    74 1
    61    27    53 1
    62    27    54 1
    63    28    55 1
    64    28    56 1
    65    29    57 1
    66    29    58 1
    67    30    59 1
    68    31    60 1
    69    31    61 1
    70    32    62 1
    71    32    63 1
    72    72    64 1
    73    72    65 1
    74    72    66 1
    75    33    67 1
    76    33    68 1
    77    34    69 1
    78    34    70 1
@<TRIPOS>SUBSTRUCTURE
     1 F5Q         1 TEMP              0 ****  ****    0 ROOT
