@<TRIPOS>MOLECULE
molecule
   49    52     1     0     0
SMALL
bcc


@<TRIPOS>ATOM
      1 C16          0.0000     0.0000     0.0000 c3         1 F5V       0.061600
      2 N14          1.4650     0.0000     0.0000 na         1 F5V       0.071400
      3 C15          2.2540     0.0000     1.0910 cc         1 F5V      -0.091300
      4 N13          2.2850    -0.0060    -1.1350 nc         1 F5V      -0.510800
      5 C12          3.5330    -0.0030    -0.7460 cd         1 F5V       0.352200
      6 C11          3.5510     0.0010     0.6630 cd         1 F5V      -0.277300
      7 C6           4.7590     0.0010     1.5240 ca         1 F5V       0.053000
      8 C1           6.0220     0.0020     0.9430 ca         1 F5V      -0.143000
      9 C2           7.1470     0.0010     1.7590 ca         1 F5V       0.019200
     10 C5           4.6200     0.0060     2.9170 ca         1 F5V      -0.158000
     11 C4           5.7180     0.0070     3.7280 ca         1 F5V      -0.049000
     12 C3           6.9960     0.0020     3.1650 ca         1 F5V      -0.171600
     13 C7           8.2050     0.0010     3.9950 c          1 F5V       0.708100
     14 O17          8.1150    -0.0000     5.2090 o          1 F5V      -0.638500
     15 N8           9.4150     0.0010     3.4050 n          1 F5V      -0.345000
     16 C18         10.6120     0.0000     4.2500 c3         1 F5V       0.088300
     17 C9           9.5690     0.0020     2.0500 cd         1 F5V       0.009600
     18 C10          8.5100     0.0020     1.2040 cc         1 F5V      -0.115400
     19 C19          8.7220     0.0010    -0.2630 ca         1 F5V      -0.023800
     20 C24          9.3270    -1.0910    -0.8810 ca         1 F5V      -0.141000
     21 C20          8.3130     1.0920    -1.0290 ca         1 F5V      -0.126000
     22 C21          8.5060     1.0890    -2.3960 ca         1 F5V      -0.113000
     23 C22          9.1050     0.0060    -3.0100 ca         1 F5V      -0.160000
     24 C23          9.5220    -1.0850    -2.2540 ca         1 F5V       0.127600
     25 N25         10.1280    -2.1770    -2.8790 nu         1 F5V      -0.770500
     26 S26         11.2980    -1.9320    -4.0240 s6         1 F5V       1.326900
     27 O29         11.6560    -3.2400    -4.4460 o          1 F5V      -0.626300
     28 O28         10.7140    -1.0040    -4.9300 o          1 F5V      -0.626300
     29 C27         12.6650    -1.1590    -3.1170 c3         1 F5V      -0.244300
     30 H1          -0.3610    -0.8890     0.5030 h1         1 F5V       0.056700
     31 H2          -0.3610     0.0090    -1.0210 h1         1 F5V       0.056700
     32 H3          -0.3610     0.8800     0.5180 h1         1 F5V       0.056700
     33 H4           1.9210     0.0020     2.1220 h4         1 F5V       0.174000
     34 H5           4.4010    -0.0040    -1.3930 h4         1 F5V       0.054100
     35 H6           6.1260    -0.1540    -0.1240 ha         1 F5V       0.145000
     36 H7           3.6300     0.0100     3.3560 ha         1 F5V       0.129000
     37 H8           5.5980     0.0110     4.8050 ha         1 F5V       0.154000
     38 H9          11.4950     0.0440     3.6250 h1         1 F5V       0.053367
     39 H10         10.6340    -0.9060     4.8430 h1         1 F5V       0.053367
     40 H11         10.5910     0.8610     4.9070 h1         1 F5V       0.053367
     41 H12         10.5700     0.0020     1.6370 h4         1 F5V       0.153000
     42 H13          9.6510    -1.9390    -0.2900 ha         1 F5V       0.138000
     43 H14          7.8420     1.9430    -0.5510 ha         1 F5V       0.143000
     44 H15          8.1850     1.9370    -2.9890 ha         1 F5V       0.141000
     45 H16          9.2560     0.0090    -4.0830 ha         1 F5V       0.186000
     46 H17          9.8250    -3.1070    -2.6640 hn         1 F5V       0.467800
     47 H18         12.7480    -1.6100    -2.1350 h1         1 F5V       0.100367
     48 H19         13.5900    -1.3080    -3.6620 h1         1 F5V       0.100367
     49 H20         12.4750    -0.0980    -3.0120 h1         1 F5V       0.100367
@<TRIPOS>BOND
     1     1     2 1
     2     4     2 1
     3     4     5 2
     4     2     3 1
     5     5     6 1
     6    22    23 ar
     7    22    21 ar
     8    23    24 ar
     9     3     6 2
    10    21    19 ar
    11     6     7 1
    12     7     8 ar
    13     7    10 ar
    14    24    25 1
    15    24    20 ar
    16     8     9 ar
    17    19    20 ar
    18    19    18 1
    19    25    26 1
    20    10    11 ar
    21     9    18 1
    22     9    12 ar
    23    18    17 2
    24    11    12 ar
    25    12    13 1
    26    26    27 2
    27    26    29 1
    28    26    28 2
    29    17    15 1
    30    13    15 1
    31    13    14 2
    32    15    16 1
    33     1    30 1
    34     1    31 1
    35     1    32 1
    36     3    33 1
    37     5    34 1
    38     8    35 1
    39    10    36 1
    40    11    37 1
    41    16    38 1
    42    16    39 1
    43    16    40 1
    44    17    41 1
    45    20    42 1
    46    21    43 1
    47    22    44 1
    48    23    45 1
    49    25    46 1
    50    29    47 1
    51    29    48 1
    52    29    49 1
@<TRIPOS>SUBSTRUCTURE
     1 F5V         1 TEMP              0 ****  ****    0 ROOT
