@<TRIPOS>MOLECULE
F5V
   49    52     1     0     0
SMALL
bcc


@<TRIPOS>ATOM
      1 C16          0.0000     0.0000     0.0000 c3         1 F5V       0.021600
      2 N14          1.4650     0.0000     0.0000 na         1 F5V       0.498400
      3 C15          2.2540     0.0000     1.0910 cc         1 F5V      -0.236300
      4 N13          2.2850    -0.0060    -1.1350 nc         1 F5V      -0.650800
      5 C12          3.5330    -0.0030    -0.7460 cd         1 F5V       0.411200
      6 C11          3.5510     0.0010     0.6630 cd         1 F5V      -0.281300
      7 C6           4.7590     0.0010     1.5240 ca         1 F5V       0.067000
      8 C1           6.0220     0.0020     0.9430 ca         1 F5V      -0.130000
      9 C2           7.1470     0.0010     1.7590 ca         1 F5V       0.021200
     10 C5           4.6200     0.0060     2.9170 ca         1 F5V      -0.140000
     11 C4           5.7180     0.0070     3.7280 ca         1 F5V      -0.015000
     12 C3           6.9960     0.0020     3.1650 ca         1 F5V      -0.181600
     13 C7           8.2050     0.0010     3.9950 c          1 F5V       0.620100
     14 O17          8.1150    -0.0000     5.2090 o          1 F5V      -0.685500
     15 N8           9.4150     0.0010     3.4050 n          1 F5V       0.072000
     16 C18         10.6120     0.0000     4.2500 c3         1 F5V       0.057300
     17 C9           9.5690     0.0020     2.0500 cc         1 F5V      -0.133400
     18 C10          8.5100     0.0020     1.2040 cd         1 F5V      -0.091400
     19 C19          8.7220     0.0010    -0.2630 ca         1 F5V      -0.013800
     20 C24          9.3270    -1.0910    -0.8810 ca         1 F5V      -0.131000
     21 C20          8.3130     1.0920    -1.0290 ca         1 F5V      -0.110000
     22 C21          8.5060     1.0890    -2.3960 ca         1 F5V      -0.078000
     23 C22          9.1050     0.0060    -3.0100 ca         1 F5V      -0.154000
     24 C23          9.5220    -1.0850    -2.2540 ca         1 F5V       0.052600
     25 N25         10.1280    -2.1770    -2.8790 nu         1 F5V      -0.411500
     26 S26         11.2980    -1.9320    -4.0240 s6         1 F5V       0.952900
     27 O29         11.6560    -3.2400    -4.4460 o          1 F5V      -0.583800
     28 O28         10.7140    -1.0040    -4.9300 o          1 F5V      -0.583800
     29 C27         12.6650    -1.1590    -3.1170 c3         1 F5V       0.013700
     30 H1          -0.3610    -0.8890     0.5030 h1         1 F5V       0.022700
     31 H2          -0.3610     0.0090    -1.0210 h1         1 F5V       0.022700
     32 H3          -0.3610     0.8800     0.5180 h1         1 F5V       0.022700
     33 H4           1.9210     0.0020     2.1220 h4         1 F5V       0.150000
     34 H5           4.4010    -0.0040    -1.3930 h4         1 F5V       0.009100
     35 H6           6.1260    -0.1540    -0.1240 ha         1 F5V       0.126000
     36 H7           3.6300     0.0100     3.3560 ha         1 F5V       0.106000
     37 H8           5.5980     0.0110     4.8050 ha         1 F5V       0.123000
     38 H9          11.4950     0.0440     3.6250 h1         1 F5V       0.020700
     39 H10         10.6340    -0.9060     4.8430 h1         1 F5V       0.020700
     40 H11         10.5910     0.8610     4.9070 h1         1 F5V       0.020700
     41 H12         10.5700     0.0020     1.6370 h4         1 F5V       0.127000
     42 H13          9.6510    -1.9390    -0.2900 ha         1 F5V       0.112000
     43 H14          7.8420     1.9430    -0.5510 ha         1 F5V       0.114000
     44 H15          8.1850     1.9370    -2.9890 ha         1 F5V       0.108000
     45 H16          9.2560     0.0090    -4.0830 ha         1 F5V       0.172000
     46 H17          9.8250    -3.1070    -2.6640 hn         1 F5V       0.351800
     47 H18         12.7480    -1.6100    -2.1350 h1         1 F5V       0.064367
     48 H19         13.5900    -1.3080    -3.6620 h1         1 F5V       0.064367
     49 H20         12.4750    -0.0980    -3.0120 h1         1 F5V       0.064367
@<TRIPOS>BOND
     1     1     2 1   
     2     1    30 1   
     3     1    31 1   
     4     1    32 1   
     5     2     3 1   
     6     2     4 1   
     7     3     6 2   
     8     3    33 1   
     9     4     5 2   
    10     5     6 1   
    11     5    34 1   
    12     6     7 1   
    13     7     8 ar  
    14     7    10 ar  
    15     8     9 ar  
    16     8    35 1   
    17     9    12 ar  
    18     9    18 1   
    19    10    11 ar  
    20    10    36 1   
    21    11    12 ar  
    22    11    37 1   
    23    12    13 1   
    24    13    14 2   
    25    13    15 1   
    26    15    16 1   
    27    15    17 1   
    28    16    38 1   
    29    16    39 1   
    30    16    40 1   
    31    17    18 2   
    32    17    41 1   
    33    18    19 1   
    34    19    20 ar  
    35    19    21 ar  
    36    20    24 ar  
    37    20    42 1   
    38    21    22 ar  
    39    21    43 1   
    40    22    23 ar  
    41    22    44 1   
    42    23    24 ar  
    43    23    45 1   
    44    24    25 1   
    45    25    26 1   
    46    25    46 1   
    47    26    27 2   
    48    26    28 2   
    49    26    29 1   
    50    29    47 1   
    51    29    48 1   
    52    29    49 1   
@<TRIPOS>SUBSTRUCTURE
     1 F5V         1 TEMP              0 ****  ****    0 ROOT
