@<TRIPOS>MOLECULE
F5Y
   54    57     1     0     0
SMALL
bcc


@<TRIPOS>ATOM
      1 C29          0.0000     0.0000     0.0000 c3         1 F5Y       0.037900
      2 C28          1.5300     0.0000     0.0000 c3         1 F5Y       0.004400
      3 S27          2.1340     0.0000     1.7110 sy         1 F5Y       0.875300
      4 O31          1.8370     1.2360     2.3440 o          1 F5Y      -0.587800
      5 O30          1.8370    -1.2380     2.3440 o          1 F5Y      -0.587800
      6 C21          3.8890    -0.0000     1.5570 ca         1 F5Y      -0.202500
      7 C20          4.5740     1.1970     1.4970 ca         1 F5Y       0.048000
      8 C22          4.5760    -1.2000     1.5040 ca         1 F5Y       0.048000
      9 C23          5.9540    -1.2100     1.3880 ca         1 F5Y      -0.246000
     10 C24          6.6550    -0.0170     1.3270 ca         1 F5Y       0.206100
     11 O25          8.0080    -0.0270     1.2150 os         1 F5Y      -0.297900
     12 C26          8.6470    -1.3050     1.1640 c3         1 F5Y       0.241700
     13 C19          5.9620     1.1970     1.3780 ca         1 F5Y      -0.098800
     14 C10          6.7030     2.4790     1.3120 cc         1 F5Y      -0.086400
     15 C2           6.6890     3.2860     0.0800 ca         1 F5Y       0.027200
     16 C1           5.9930     2.8830    -1.0530 ca         1 F5Y      -0.130000
     17 C9           7.3970     2.9260     2.3870 cd         1 F5Y      -0.118400
     18 N8           8.0900     4.1000     2.3670 n          1 F5Y       0.076000
     19 C18          8.8140     4.5120     3.5720 c3         1 F5Y       0.056300
     20 C7           8.1350     4.8940     1.2810 c          1 F5Y       0.620100
     21 O17          8.7680     5.9340     1.3070 o          1 F5Y      -0.687500
     22 C3           7.4120     4.5020     0.0670 ca         1 F5Y      -0.178600
     23 C4           7.4220     5.2920    -1.0830 ca         1 F5Y      -0.013000
     24 C5           6.7340     4.8870    -2.1910 ca         1 F5Y      -0.141000
     25 C6           6.0170     3.6850    -2.1880 ca         1 F5Y       0.063000
     26 C11          5.2780     3.2660    -3.4030 cc         1 F5Y      -0.276300
     27 C12          5.2110     3.9480    -4.5840 cd         1 F5Y      -0.235300
     28 C15          4.5210     2.0860    -3.5520 cc         1 F5Y       0.406200
     29 N14          4.0240     2.0730    -4.7610 nd         1 F5Y      -0.652800
     30 N13          4.4430     3.2310    -5.4270 na         1 F5Y       0.498400
     31 C16          4.1050     3.5980    -6.8040 c3         1 F5Y       0.021600
     32 H1          -0.3610    -0.0040    -1.0210 hc         1 F5Y       0.013033
     33 H2          -0.3610    -0.8830     0.5140 hc         1 F5Y       0.013033
     34 H3          -0.3610     0.8860     0.5070 hc         1 F5Y       0.013033
     35 H4           1.8910    -0.8850    -0.5110 h1         1 F5Y       0.062700
     36 H5           1.8910     0.8850    -0.5110 h1         1 F5Y       0.062700
     37 H6           4.0330     2.1340     1.5360 ha         1 F5Y       0.132000
     38 H7           4.0320    -2.1350     1.5510 ha         1 F5Y       0.122000
     39 H8           6.4860    -2.1530     1.3470 ha         1 F5Y       0.127000
     40 H9           8.2790    -1.8580     0.3080 h1         1 F5Y       0.000700
     41 H10          9.7180    -1.1700     1.0740 h1         1 F5Y       0.000700
     42 H11          8.4270    -1.8550     2.0710 h1         1 F5Y       0.000700
     43 H12          5.4370     1.9530    -1.0520 ha         1 F5Y       0.117000
     44 H13          7.4000     2.3320     3.2930 h4         1 F5Y       0.130000
     45 H14          8.6720     3.7720     4.3500 h1         1 F5Y       0.021033
     46 H15          9.8700     4.6010     3.3470 h1         1 F5Y       0.021033
     47 H16          8.4360     5.4690     3.9110 h1         1 F5Y       0.021033
     48 H17          7.9740     6.2240    -1.0970 ha         1 F5Y       0.123000
     49 H18          6.7440     5.5020    -3.0820 ha         1 F5Y       0.106000
     50 H19          5.6860     4.8970    -4.8020 h4         1 F5Y       0.151000
     51 H20          4.3750     1.3240    -2.7950 h4         1 F5Y       0.004100
     52 H21          5.0120     3.6790    -7.3900 h1         1 F5Y       0.023033
     53 H22          3.4640     2.8370    -7.2340 h1         1 F5Y       0.023033
     54 H23          3.5870     4.5500    -6.8070 h1         1 F5Y       0.023033
@<TRIPOS>BOND
     1     1     2 1   
     2     1    32 1   
     3     1    33 1   
     4     1    34 1   
     5     2     3 1   
     6     2    35 1   
     7     2    36 1   
     8     3     4 2   
     9     3     5 2   
    10     3     6 1   
    11     6     7 ar  
    12     6     8 ar  
    13     7    13 ar  
    14     7    37 1   
    15     8     9 ar  
    16     8    38 1   
    17     9    10 ar  
    18     9    39 1   
    19    10    11 1   
    20    10    13 ar  
    21    11    12 1   
    22    12    40 1   
    23    12    41 1   
    24    12    42 1   
    25    13    14 1   
    26    14    15 1   
    27    14    17 2   
    28    15    16 ar  
    29    15    22 ar  
    30    16    25 ar  
    31    16    43 1   
    32    17    18 1   
    33    17    44 1   
    34    18    19 1   
    35    18    20 1   
    36    19    45 1   
    37    19    46 1   
    38    19    47 1   
    39    20    21 2   
    40    20    22 1   
    41    22    23 ar  
    42    23    24 ar  
    43    23    48 1   
    44    24    25 ar  
    45    24    49 1   
    46    25    26 1   
    47    26    27 2   
    48    26    28 1   
    49    27    30 1   
    50    27    50 1   
    51    28    29 2   
    52    28    51 1   
    53    29    30 1   
    54    30    31 1   
    55    31    52 1   
    56    31    53 1   
    57    31    54 1   
@<TRIPOS>SUBSTRUCTURE
     1 F5Y         1 TEMP              0 ****  ****    0 ROOT
