@<TRIPOS>MOLECULE
molecule
   54    57     1     0     0
SMALL
bcc


@<TRIPOS>ATOM
      1 C29          0.0000     0.0000     0.0000 c3         1 F5Y      -0.074100
      2 C28          1.5300     0.0000     0.0000 c3         1 F5Y      -0.207600
      3 S27          2.1340     0.0000     1.7110 sy         1 F5Y       1.197300
      4 O31          1.8370     1.2360     2.3440 o          1 F5Y      -0.620300
      5 O30          1.8370    -1.2380     2.3440 o          1 F5Y      -0.620300
      6 C21          3.8890    -0.0000     1.5570 ca         1 F5Y      -0.342500
      7 C20          4.5740     1.1970     1.4970 ca         1 F5Y       0.016000
      8 C22          4.5760    -1.2000     1.5040 ca         1 F5Y       0.011000
      9 C23          5.9540    -1.2100     1.3880 ca         1 F5Y      -0.247000
     10 C24          6.6550    -0.0170     1.3270 ca         1 F5Y       0.200100
     11 O25          8.0080    -0.0270     1.2150 os         1 F5Y      -0.313900
     12 C26          8.6470    -1.3050     1.1640 c3         1 F5Y       0.123700
     13 C19          5.9620     1.1970     1.3780 ca         1 F5Y      -0.087800
     14 C10          6.7030     2.4790     1.3120 cc         1 F5Y      -0.110400
     15 C2           6.6890     3.2860     0.0800 ca         1 F5Y       0.025200
     16 C1           5.9930     2.8830    -1.0530 ca         1 F5Y      -0.144000
     17 C9           7.3970     2.9260     2.3870 cd         1 F5Y       0.025600
     18 N8           8.0900     4.1000     2.3670 n          1 F5Y      -0.343000
     19 C18          8.8140     4.5120     3.5720 c3         1 F5Y       0.088300
     20 C7           8.1350     4.8940     1.2810 c          1 F5Y       0.708100
     21 O17          8.7680     5.9340     1.3070 o          1 F5Y      -0.640500
     22 C3           7.4120     4.5020     0.0670 ca         1 F5Y      -0.169600
     23 C4           7.4220     5.2920    -1.0830 ca         1 F5Y      -0.048000
     24 C5           6.7340     4.8870    -2.1910 ca         1 F5Y      -0.160000
     25 C6           6.0170     3.6850    -2.1880 ca         1 F5Y       0.050000
     26 C11          5.2780     3.2660    -3.4030 cd         1 F5Y      -0.273300
     27 C12          5.2110     3.9480    -4.5840 cc         1 F5Y      -0.091300
     28 C15          4.5210     2.0860    -3.5520 cd         1 F5Y       0.348200
     29 N14          4.0240     2.0730    -4.7610 nc         1 F5Y      -0.512800
     30 N13          4.4430     3.2310    -5.4270 na         1 F5Y       0.071400
     31 C16          4.1050     3.5980    -6.8040 c3         1 F5Y       0.061600
     32 H1          -0.3610    -0.0040    -1.0210 hc         1 F5Y       0.052033
     33 H2          -0.3610    -0.8830     0.5140 hc         1 F5Y       0.052033
     34 H3          -0.3610     0.8860     0.5070 hc         1 F5Y       0.052033
     35 H4           1.8910    -0.8850    -0.5110 h1         1 F5Y       0.097700
     36 H5           1.8910     0.8850    -0.5110 h1         1 F5Y       0.097700
     37 H6           4.0330     2.1340     1.5360 ha         1 F5Y       0.164000
     38 H7           4.0320    -2.1350     1.5510 ha         1 F5Y       0.152000
     39 H8           6.4860    -2.1530     1.3470 ha         1 F5Y       0.143000
     40 H9           8.2790    -1.8580     0.3080 h1         1 F5Y       0.046367
     41 H10          9.7180    -1.1700     1.0740 h1         1 F5Y       0.046367
     42 H11          8.4270    -1.8550     2.0710 h1         1 F5Y       0.046367
     43 H12          5.4370     1.9530    -1.0520 ha         1 F5Y       0.137000
     44 H13          7.4000     2.3320     3.2930 h4         1 F5Y       0.157000
     45 H14          8.6720     3.7720     4.3500 h1         1 F5Y       0.053367
     46 H15          9.8700     4.6010     3.3470 h1         1 F5Y       0.053367
     47 H16          8.4360     5.4690     3.9110 h1         1 F5Y       0.053367
     48 H17          7.9740     6.2240    -1.0970 ha         1 F5Y       0.154000
     49 H18          6.7440     5.5020    -3.0820 ha         1 F5Y       0.128000
     50 H19          5.6860     4.8970    -4.8020 h4         1 F5Y       0.175000
     51 H20          4.3750     1.3240    -2.7950 h4         1 F5Y       0.049100
     52 H21          5.0120     3.6790    -7.3900 h1         1 F5Y       0.057033
     53 H22          3.4640     2.8370    -7.2340 h1         1 F5Y       0.057033
     54 H23          3.5870     4.5500    -6.8070 h1         1 F5Y       0.057033
@<TRIPOS>BOND
     1    31    30 1
     2    30    29 1
     3    30    27 1
     4    29    28 2
     5    12    11 1
     6    27    26 2
     7    28    26 1
     8    26    25 1
     9    11    10 1
    10    25    24 ar
    11    25    16 ar
    12    24    23 ar
    13     9    10 ar
    14     9     8 ar
    15    16    15 ar
    16    10    13 ar
    17    23    22 ar
    18     8     6 ar
    19    15    22 ar
    20    15    14 1
    21    13    14 1
    22    13     7 ar
    23    22    20 1
    24    14    17 2
    25     6     7 ar
    26     6     3 1
    27    20    21 2
    28    20    18 1
    29    17    18 1
    30     4     3 2
    31    18    19 1
    32     3     2 1
    33     3     5 2
    34     2     1 1
    35     1    32 1
    36     1    33 1
    37     1    34 1
    38     2    35 1
    39     2    36 1
    40     7    37 1
    41     8    38 1
    42     9    39 1
    43    12    40 1
    44    12    41 1
    45    12    42 1
    46    16    43 1
    47    17    44 1
    48    19    45 1
    49    19    46 1
    50    19    47 1
    51    23    48 1
    52    24    49 1
    53    27    50 1
    54    28    51 1
    55    31    52 1
    56    31    53 1
    57    31    54 1
@<TRIPOS>SUBSTRUCTURE
     1 F5Y         1 TEMP              0 ****  ****    0 ROOT
