@<TRIPOS>MOLECULE
molecule
   74    77     1     0     0
SMALL
bcc


@<TRIPOS>ATOM
      1 CAS          0.0000     0.0000     0.0000 c3         1 F5Z      -0.074900
      2 CAU          1.5300     0.0000     0.0000 c3         1 F5Z       0.163800
      3 NBH          2.0210     0.0000     1.3840 n3         1 F5Z      -0.730600
      4 CAC          3.4830    -0.1390     1.4250 c3         1 F5Z       0.153100
      5 CAV          1.5880     1.2060     2.1010 c3         1 F5Z       0.163800
      6 CAT          0.0590     1.2430     2.1630 c3         1 F5Z      -0.074900
      7 CBG         -0.5060     1.2420     0.7400 c3         1 F5Z      -0.072700
      8 CAR         -2.0350     1.2160     0.7980 c3         1 F5Z      -0.076400
      9 CAP         -2.6000     1.3410    -0.6190 c3         1 F5Z      -0.084400
     10 CAO         -4.1290     1.3160    -0.5620 c3         1 F5Z      -0.077400
     11 CAQ         -4.6940     1.4390    -1.9780 c3         1 F5Z      -0.046100
     12 CAZ         -6.2000     1.4150    -1.9220 ca         1 F5Z      -0.023300
     13 CAI         -6.8750     0.2110    -2.0010 ca         1 F5Z      -0.150000
     14 CAK         -8.2570     0.1880    -1.9500 ca         1 F5Z      -0.024000
     15 CAH         -6.9060     2.5950    -1.7860 ca         1 F5Z      -0.150000
     16 CAJ         -8.2870     2.5720    -1.7340 ca         1 F5Z      -0.024000
     17 CBB         -8.9620     1.3690    -1.8190 ca         1 F5Z      -0.320500
     18 SBI        -10.7230     1.3400    -1.7540 sy         1 F5Z       1.417200
     19 OAD        -11.1600     2.6390    -2.1320 o          1 F5Z      -0.630800
     20 OAE        -11.1300     0.1570    -2.4270 o          1 F5Z      -0.630800
     21 NAY        -11.1510     1.1460    -0.1660 nu         1 F5Z      -0.771500
     22 CBC        -10.9260     2.1720     0.7460 ca         1 F5Z       0.119600
     23 CBE         -9.8830     2.0700     1.6910 ca         1 F5Z      -0.154300
     24 CAM         -9.0480     0.9410     1.7380 ca         1 F5Z      -0.079000
     25 CAF         -8.0580     0.9110     2.6800 ca         1 F5Z      -0.251300
     26 CAG         -7.8990     1.9810     3.5560 ca         1 F5Z       0.427200
     27 NAX         -8.6800     3.0330     3.5090 nb         1 F5Z      -0.676000
     28 CBD         -9.6680     3.1260     2.6110 ca         1 F5Z       0.413600
     29 CAN        -10.5010     4.2560     2.5660 ca         1 F5Z      -0.155300
     30 CAL        -11.5020     4.3300     1.6460 ca         1 F5Z      -0.115000
     31 CBA        -11.7180     3.3030     0.7330 ca         1 F5Z      -0.043300
     32 CAW        -12.8290     3.4230    -0.2770 c3         1 F5Z      -0.045100
     33 CBF        -14.1590     3.0440     0.3810 c3         1 F5Z      -0.072700
     34 CAB        -15.2980     3.2410    -0.6200 c3         1 F5Z      -0.087100
     35 CAA        -14.1110     1.5780     0.8170 c3         1 F5Z      -0.087100
     36 H1          -0.3600     0.0170    -1.0210 hc         1 F5Z       0.049200
     37 H2          -0.3600    -0.8900     0.5010 hc         1 F5Z       0.049200
     38 H3           1.8900    -0.8860    -0.5090 h1         1 F5Z       0.032450
     39 H4           1.8900     0.8860    -0.5090 h1         1 F5Z       0.032450
     40 H6           3.9400     0.7070     0.9270 h1         1 F5Z       0.031367
     41 H7           3.8140    -0.1740     2.4560 h1         1 F5Z       0.031367
     42 H8           3.7720    -1.0540     0.9220 h1         1 F5Z       0.031367
     43 H9           1.9880     1.1900     3.1080 h1         1 F5Z       0.032450
     44 H10          1.9470     2.0840     1.5790 h1         1 F5Z       0.032450
     45 H11         -0.3010     0.3700     2.6940 hc         1 F5Z       0.049200
     46 H12         -0.2600     2.1420     2.6760 hc         1 F5Z       0.049200
     47 H13         -0.1730     2.1320     0.2200 hc         1 F5Z       0.048700
     48 H14         -2.3640     0.2820     1.2370 hc         1 F5Z       0.043700
     49 H15         -2.3870     2.0440     1.4010 hc         1 F5Z       0.043700
     50 H16         -2.2480     0.5130    -1.2220 hc         1 F5Z       0.043700
     51 H17         -2.2710     2.2740    -1.0590 hc         1 F5Z       0.043700
     52 H18         -4.4810     2.1440     0.0400 hc         1 F5Z       0.046200
     53 H19         -4.4590     0.3820    -0.1220 hc         1 F5Z       0.046200
     54 H20         -4.3420     0.6110    -2.5810 hc         1 F5Z       0.054200
     55 H21         -4.3640     2.3720    -2.4190 hc         1 F5Z       0.054200
     56 H22         -6.3210    -0.7140    -2.1040 ha         1 F5Z       0.138000
     57 H23         -8.7860    -0.7550    -2.0140 ha         1 F5Z       0.150500
     58 H24         -6.3770     3.5390    -1.7200 ha         1 F5Z       0.138000
     59 H25         -8.8410     3.4980    -1.6290 ha         1 F5Z       0.150500
     60 H26        -11.5260     0.2720     0.1470 hn         1 F5Z       0.463800
     61 H27         -9.1860     0.1170     1.0490 ha         1 F5Z       0.138000
     62 H28         -7.3960     0.0550     2.7440 ha         1 F5Z       0.138000
     63 H29         -7.1100     1.9430     4.2970 h4         1 F5Z       0.023100
     64 H30        -10.3500     5.0680     3.2670 ha         1 F5Z       0.151000
     65 H31        -12.1350     5.2090     1.6170 ha         1 F5Z       0.142000
     66 H32        -12.8820     4.4440    -0.6360 hc         1 F5Z       0.070700
     67 H33        -12.6360     2.7580    -1.1090 hc         1 F5Z       0.070700
     68 H34        -14.3250     3.6740     1.2470 hc         1 F5Z       0.047700
     69 H35        -15.1960     2.5280    -1.4290 hc         1 F5Z       0.034033
     70 H36        -16.2480     3.0880    -0.1210 hc         1 F5Z       0.034033
     71 H37        -15.2590     4.2480    -1.0190 hc         1 F5Z       0.034033
     72 H38        -15.1050     1.2540     1.1020 hc         1 F5Z       0.034033
     73 H39        -13.7550     0.9690    -0.0050 hc         1 F5Z       0.034033
     74 H40        -13.4410     1.4740     1.6610 hc         1 F5Z       0.034033
@<TRIPOS>BOND
     1     4     3 1
     2     5     3 1
     3     5     6 1
     4     3     2 1
     5     2     1 1
     6     7     6 1
     7     7     1 1
     8     7     8 1
     9     9    10 1
    10     9     8 1
    11    10    11 1
    12    11    12 1
    13    12    15 ar
    14    12    13 ar
    15    15    16 ar
    16    13    14 ar
    17    16    17 ar
    18    14    17 ar
    19    17    18 1
    20    19    18 2
    21    18    20 2
    22    18    21 1
    23    21    22 1
    24    24    25 ar
    25    24    23 ar
    26    25    26 ar
    27    22    23 ar
    28    22    31 ar
    29    23    28 ar
    30    32    31 1
    31    32    33 1
    32    31    30 ar
    33    26    27 ar
    34    28    27 ar
    35    28    29 ar
    36    30    29 ar
    37    35    33 1
    38    33    34 1
    39     1    36 1
    40     1    37 1
    41     2    38 1
    42     2    39 1
    43     4    40 1
    44     4    41 1
    45     4    42 1
    46     5    43 1
    47     5    44 1
    48     6    45 1
    49     6    46 1
    50     7    47 1
    51     8    48 1
    52     8    49 1
    53     9    50 1
    54     9    51 1
    55    10    52 1
    56    10    53 1
    57    11    54 1
    58    11    55 1
    59    13    56 1
    60    14    57 1
    61    15    58 1
    62    16    59 1
    63    21    60 1
    64    24    61 1
    65    25    62 1
    66    26    63 1
    67    29    64 1
    68    30    65 1
    69    32    66 1
    70    32    67 1
    71    33    68 1
    72    34    69 1
    73    34    70 1
    74    34    71 1
    75    35    72 1
    76    35    73 1
    77    35    74 1
@<TRIPOS>SUBSTRUCTURE
     1 F5Z         1 TEMP              0 ****  ****    0 ROOT
