@<TRIPOS>MOLECULE
molecule
   17    18     1     0     0
SMALL
bcc


@<TRIPOS>ATOM
      1 O01          0.0000     0.0000     0.0000 oh         1 F60      -0.522100
      2 C02          1.3590     0.0000     0.0000 ca         1 F60       0.124100
      3 C03          2.0440     0.0000     1.2010 ca         1 F60      -0.176000
      4 C04          3.4350    -0.0050     1.2020 ca         1 F60      -0.027200
      5 C05          4.1260    -0.0110    -0.0240 ca         1 F60      -0.113800
      6 C06          5.5510    -0.0150     0.3160 cc         1 F60      -0.195200
      7 C07          5.6370    -0.0120     1.6540 cd         1 F60      -0.103100
      8 N08          4.3810    -0.0070     2.2020 na         1 F60      -0.184400
      9 C09          3.4160    -0.0110    -1.2260 ca         1 F60      -0.065000
     10 C10          2.0500    -0.0050    -1.2090 ca         1 F60      -0.178000
     11 H1          -0.3140     0.8870     0.0510 ho         1 F60       0.418000
     12 H2           1.5010    -0.0890     2.1340 ha         1 F60       0.136000
     13 H3           6.3800    -0.0200    -0.3830 ha         1 F60       0.155000
     14 H4           6.5610    -0.0140     2.2190 h4         1 F60       0.165000
     15 H5           4.1810    -0.0030     3.1830 hn         1 F60       0.295700
     16 H6           3.9470    -0.0150    -2.1700 ha         1 F60       0.133000
     17 H7           1.5010    -0.0050    -2.1430 ha         1 F60       0.139000
@<TRIPOS>BOND
     1     7     8 1
     2     7     6 2
     3     8     4 1
     4     6     5 1
     5     4     5 ar
     6     4     3 ar
     7     5     9 ar
     8     3     2 ar
     9     9    10 ar
    10     2    10 ar
    11     2     1 1
    12     1    11 1
    13     3    12 1
    14     6    13 1
    15     7    14 1
    16     8    15 1
    17     9    16 1
    18    10    17 1
@<TRIPOS>SUBSTRUCTURE
     1 F60         1 TEMP              0 ****  ****    0 ROOT
