@<TRIPOS>MOLECULE
molecule
  114   114     1     0     0
SMALL
bcc


@<TRIPOS>ATOM
      1 C1           0.0000     0.0000     0.0000 c3         1 F61       0.118400
      2 C2           1.5300     0.0000     0.0000 c3         1 F61       0.123700
      3 C3           2.0410     1.2480    -0.7210 c3         1 F61       0.137100
      4 C4           3.5640     1.1800    -0.8420 c3         1 F61       0.127100
      5 C5           4.0750     2.4290    -1.5640 c3         1 F61      -0.107400
      6 C6           5.5820     2.3030    -1.7960 c3         1 F61      -0.083400
      7 O3           1.4620     1.3150    -2.0260 oh         1 F61      -0.599800
      8 C18         17.6900     9.0430    -7.5140 c3         1 F61      -0.092100
      9 C17         16.1820     9.1690    -7.2820 c3         1 F61      -0.084400
     10 C16         15.6720     7.9210    -6.5610 c3         1 F61      -0.081400
     11 C15         14.1650     8.0450    -6.3290 c3         1 F61      -0.082400
     12 C14         13.6540     6.7970    -5.6070 c3         1 F61      -0.081400
     13 C13         12.1470     6.9220    -5.3760 c3         1 F61      -0.082400
     14 C12         11.6370     5.6730    -4.6540 c3         1 F61      -0.082400
     15 C11         10.1290     5.7990    -4.4230 c3         1 F61      -0.082400
     16 C10          9.6180     4.5500    -3.7010 c3         1 F61      -0.082400
     17 C9           8.1110     4.6750    -3.4700 c3         1 F61      -0.081400
     18 C8           7.6000     3.4260    -2.7480 c3         1 F61      -0.082400
     19 C7           6.0930     3.5520    -2.5160 c3         1 F61      -0.080400
     20 O4           4.1430     1.1140     0.4620 oh         1 F61      -0.614800
     21 O1A         -0.4760     1.2160     0.5800 os         1 F61      -0.452600
     22 C1A         -1.9000     1.3190     0.6280 c3         1 F61       0.325900
     23 O6A         -2.4120     0.3940     1.5900 os         1 F61      -0.408600
     24 C5M         -1.9100     0.5910     2.9140 c3         1 F61       0.148100
     25 C6A         -2.5020    -0.4680     3.8460 c3         1 F61       0.148400
     26 O5A         -2.0370    -1.7610     3.4540 oh         1 F61      -0.597800
     27 C4A         -2.3060     1.9850     3.4070 c3         1 F61       0.100100
     28 O4A         -3.7310     2.0830     3.4670 oh         1 F61      -0.587800
     29 C3A         -1.7610     3.0350     2.4350 c3         1 F61       0.125100
     30 O3A         -2.1890     4.3350     2.8480 oh         1 F61      -0.598800
     31 C2A         -2.2960     2.7420     1.0300 c3         1 F61       0.132100
     32 O2A         -1.7360     3.6740     0.1020 oh         1 F61      -0.595800
     33 N2           2.0180     0.0000     1.3810 ns         1 F61      -0.568900
     34 CAA          2.1460    -1.1630     2.0510 c          1 F61       0.658100
     35 OAA          1.8570    -2.2090     1.5100 o          1 F61      -0.616100
     36 CAB          2.6480    -1.1630     3.4720 c3         1 F61      -0.154400
     37 CAC          2.6990    -2.6000     3.9950 c3         1 F61      -0.067400
     38 CAD          3.2080    -2.6000     5.4380 c3         1 F61      -0.085400
     39 CAE          3.2590    -4.0360     5.9610 c3         1 F61      -0.080400
     40 CAF          3.7690    -4.0360     7.4040 c3         1 F61      -0.082400
     41 CAG          3.8190    -5.4730     7.9270 c3         1 F61      -0.081400
     42 CAH          4.3300    -5.4730     9.3690 c3         1 F61      -0.082400
     43 CAI          4.3800    -6.9100     9.8920 c3         1 F61      -0.081400
     44 CAJ          4.8900    -6.9100    11.3340 c3         1 F61      -0.084400
     45 CAK          4.9410    -8.3460    11.8580 c3         1 F61      -0.092100
     46 H1          -0.3610    -0.0800    -1.0180 h1         1 F61       0.055700
     47 H2          -0.3610    -0.8420     0.5780 h1         1 F61       0.055700
     48 H3           1.8910    -0.8850    -0.5100 h1         1 F61       0.093700
     49 H4           1.7620     2.1300    -0.1570 h1         1 F61       0.062700
     50 H5           3.8430     0.2980    -1.4050 h1         1 F61       0.048700
     51 H6           3.5700     2.5270    -2.5170 hc         1 F61       0.053700
     52 H7           3.8750     3.3040    -0.9570 hc         1 F61       0.053700
     53 H8           6.0880     2.2040    -0.8420 hc         1 F61       0.041700
     54 H9           5.7830     1.4280    -2.4030 hc         1 F61       0.041700
     55 H10          1.1300     2.1840    -2.1790 ho         1 F61       0.414000
     56 H11         17.8840     8.2120    -8.1800 hc         1 F61       0.032367
     57 H12         18.1870     8.8710    -6.5670 hc         1 F61       0.032367
     58 H13         18.0640     9.9570    -7.9580 hc         1 F61       0.032367
     59 H14         15.6770     9.2670    -8.2350 hc         1 F61       0.039700
     60 H15         15.9820    10.0440    -6.6760 hc         1 F61       0.039700
     61 H16         15.8730     7.0460    -7.1670 hc         1 F61       0.040700
     62 H17         16.1770     7.8230    -5.6070 hc         1 F61       0.040700
     63 H18         13.9650     8.9210    -5.7230 hc         1 F61       0.040700
     64 H19         13.6610     8.1440    -7.2830 hc         1 F61       0.040700
     65 H20         13.8540     5.9220    -6.2140 hc         1 F61       0.040700
     66 H21         14.1580     6.6990    -4.6540 hc         1 F61       0.040700
     67 H22         11.9460     7.7970    -4.7700 hc         1 F61       0.040700
     68 H23         11.6420     7.0200    -6.3290 hc         1 F61       0.040700
     69 H24         12.1410     5.5760    -3.7010 hc         1 F61       0.041200
     70 H25         11.8380     4.7980    -5.2610 hc         1 F61       0.041200
     71 H26          9.6250     5.8960    -5.3770 hc         1 F61       0.041200
     72 H27          9.9280     6.6740    -3.8170 hc         1 F61       0.041200
     73 H28         10.1230     4.4520    -2.7480 hc         1 F61       0.041200
     74 H29          9.8190     3.6750    -4.3070 hc         1 F61       0.041200
     75 H30          7.9100     5.5500    -2.8640 hc         1 F61       0.041200
     76 H31          7.6060     4.7730    -4.4240 hc         1 F61       0.041200
     77 H32          8.1050     3.3280    -1.7950 hc         1 F61       0.041200
     78 H33          7.8000     2.5510    -3.3540 hc         1 F61       0.041200
     79 H34          5.5880     3.6510    -3.4700 hc         1 F61       0.042700
     80 H35          5.8930     4.4270    -1.9090 hc         1 F61       0.042700
     81 H36          4.9170     0.5760     0.4360 ho         1 F61       0.409000
     82 H37         -2.3160     1.0920    -0.3460 h2         1 F61       0.081700
     83 H38         -0.8300     0.5070     2.9040 h1         1 F61       0.068700
     84 H39         -2.1910    -0.2670     4.8640 h1         1 F61       0.033700
     85 H40         -3.5830    -0.4390     3.7860 h1         1 F61       0.033700
     86 H41         -2.5240    -2.4240     3.9160 ho         1 F61       0.404000
     87 H42         -1.8850     2.1520     4.3910 h1         1 F61       0.039700
     88 H43         -3.9850     2.4710     4.2880 ho         1 F61       0.405000
     89 H44         -0.6790     2.9910     2.4250 h1         1 F61       0.061700
     90 H45         -1.4560     4.8080     3.2050 ho         1 F61       0.404000
     91 H46         -3.3760     2.8290     1.0310 h1         1 F61       0.080700
     92 H47         -2.4310     4.1080    -0.3660 ho         1 F61       0.407000
     93 H48          2.2840     0.8600     1.8180 hn         1 F61       0.326500
     94 H49          1.9790    -0.5770     4.0910 hc         1 F61       0.056200
     95 H50          3.6410    -0.7320     3.5050 hc         1 F61       0.056200
     96 H51          1.7050    -3.0310     3.9630 hc         1 F61       0.059700
     97 H52          3.3670    -3.1860     3.3760 hc         1 F61       0.059700
     98 H53          2.5400    -2.0130     6.0570 hc         1 F61       0.036700
     99 H54          4.2010    -2.1680     5.4700 hc         1 F61       0.036700
    100 H55          2.2660    -4.4670     5.9290 hc         1 F61       0.043700
    101 H56          3.9270    -4.6220     5.3420 hc         1 F61       0.043700
    102 H57          3.1010    -3.4490     8.0230 hc         1 F61       0.039200
    103 H58          4.7620    -3.6050     7.4360 hc         1 F61       0.039200
    104 H59          2.8250    -5.9040     7.8960 hc         1 F61       0.041700
    105 H60          4.4860    -6.0600     7.3070 hc         1 F61       0.041700
    106 H61          5.3240    -5.0420     9.4000 hc         1 F61       0.040200
    107 H62          3.6630    -4.8860     9.9890 hc         1 F61       0.040200
    108 H63          3.3870    -7.3410     9.8610 hc         1 F61       0.041700
    109 H64          5.0480    -7.4970     9.2730 hc         1 F61       0.041700
    110 H65          5.8840    -6.4790    11.3660 hc         1 F61       0.039700
    111 H66          4.2230    -6.3230    11.9540 hc         1 F61       0.039700
    112 H67          5.5000    -8.3730    12.7860 hc         1 F61       0.032367
    113 H68          5.4250    -8.9810    11.1260 hc         1 F61       0.032367
    114 H69          3.9330    -8.7020    12.0340 hc         1 F61       0.032367
@<TRIPOS>BOND
     1    45    44 1
     2    44    43 1
     3    43    42 1
     4    11    12 1
     5    11    10 1
     6     9    10 1
     7     9     8 1
     8    42    41 1
     9    13    12 1
    10    13    14 1
    11    16    15 1
    12    16    17 1
    13    41    40 1
    14    15    14 1
    15    18    17 1
    16    18    19 1
    17    40    39 1
    18    39    38 1
    19     6    19 1
    20     6     5 1
    21     5     4 1
    22    38    37 1
    23    37    36 1
    24    35    34 2
    25     4    20 1
    26     4     3 1
    27    34    36 1
    28    34    33 1
    29     2    33 1
    30     2     3 1
    31     2     1 1
    32     7     3 1
    33     1    21 1
    34    21    22 1
    35    26    25 1
    36    23    22 1
    37    23    24 1
    38    22    31 1
    39    24    25 1
    40    24    27 1
    41    31    32 1
    42    31    29 1
    43    29    27 1
    44    29    30 1
    45    27    28 1
    46     1    46 1
    47     1    47 1
    48     2    48 1
    49     3    49 1
    50     4    50 1
    51     5    51 1
    52     5    52 1
    53     6    53 1
    54     6    54 1
    55     7    55 1
    56     8    56 1
    57     8    57 1
    58     8    58 1
    59     9    59 1
    60     9    60 1
    61    10    61 1
    62    10    62 1
    63    11    63 1
    64    11    64 1
    65    12    65 1
    66    12    66 1
    67    13    67 1
    68    13    68 1
    69    14    69 1
    70    14    70 1
    71    15    71 1
    72    15    72 1
    73    16    73 1
    74    16    74 1
    75    17    75 1
    76    17    76 1
    77    18    77 1
    78    18    78 1
    79    19    79 1
    80    19    80 1
    81    20    81 1
    82    22    82 1
    83    24    83 1
    84    25    84 1
    85    25    85 1
    86    26    86 1
    87    27    87 1
    88    28    88 1
    89    29    89 1
    90    30    90 1
    91    31    91 1
    92    32    92 1
    93    33    93 1
    94    36    94 1
    95    36    95 1
    96    37    96 1
    97    37    97 1
    98    38    98 1
    99    38    99 1
   100    39   100 1
   101    39   101 1
   102    40   102 1
   103    40   103 1
   104    41   104 1
   105    41   105 1
   106    42   106 1
   107    42   107 1
   108    43   108 1
   109    43   109 1
   110    44   110 1
   111    44   111 1
   112    45   112 1
   113    45   113 1
   114    45   114 1
@<TRIPOS>SUBSTRUCTURE
     1 F61         1 TEMP              0 ****  ****    0 ROOT
