@<TRIPOS>MOLECULE
F61
  114   114     1     0     0
SMALL
bcc


@<TRIPOS>ATOM
      1 C1           0.0000     0.0000     0.0000 c3         1 F61       0.185400
      2 C2           1.5300     0.0000     0.0000 c3         1 F61       0.008700
      3 C3           2.0410     1.2480    -0.7210 c3         1 F61       0.171100
      4 C4           3.5640     1.1800    -0.8420 c3         1 F61       0.164100
      5 C5           4.0750     2.4290    -1.5640 c3         1 F61      -0.061400
      6 C6           5.5820     2.3030    -1.7960 c3         1 F61      -0.029400
      7 O3           1.4620     1.3150    -2.0260 oh         1 F61      -0.577800
      8 C18         17.6900     9.0430    -7.5140 c3         1 F61       0.005900
      9 C17         16.1820     9.1690    -7.2820 c3         1 F61      -0.028400
     10 C16         15.6720     7.9210    -6.5610 c3         1 F61      -0.030400
     11 C15         14.1650     8.0450    -6.3290 c3         1 F61      -0.029400
     12 C14         13.6540     6.7970    -5.6070 c3         1 F61      -0.029400
     13 C13         12.1470     6.9220    -5.3760 c3         1 F61      -0.029400
     14 C12         11.6370     5.6730    -4.6540 c3         1 F61      -0.029400
     15 C11         10.1290     5.7990    -4.4230 c3         1 F61      -0.029400
     16 C10          9.6180     4.5500    -3.7010 c3         1 F61      -0.029400
     17 C9           8.1110     4.6750    -3.4700 c3         1 F61      -0.029400
     18 C8           7.6000     3.4260    -2.7480 c3         1 F61      -0.029400
     19 C7           6.0930     3.5520    -2.5160 c3         1 F61      -0.027400
     20 O4           4.1430     1.1140     0.4620 oh         1 F61      -0.598800
     21 O1A         -0.4760     1.2160     0.5800 os         1 F61      -0.439600
     22 C1A         -1.9000     1.3190     0.6280 c3         1 F61       0.377900
     23 O6A         -2.4120     0.3940     1.5900 os         1 F61      -0.396600
     24 C5M         -1.9100     0.5910     2.9140 c3         1 F61       0.164100
     25 C6A         -2.5020    -0.4680     3.8460 c3         1 F61       0.222400
     26 O5A         -2.0370    -1.7610     3.4540 oh         1 F61      -0.579800
     27 C4A         -2.3060     1.9850     3.4070 c3         1 F61       0.139100
     28 O4A         -3.7310     2.0830     3.4670 oh         1 F61      -0.566800
     29 C3A         -1.7610     3.0350     2.4350 c3         1 F61       0.157100
     30 O3A         -2.1890     4.3350     2.8480 oh         1 F61      -0.578800
     31 C2A         -2.2960     2.7420     1.0300 c3         1 F61       0.153100
     32 O2A         -1.7360     3.6740     0.1020 oh         1 F61      -0.576800
     33 N2           2.0180     0.0000     1.3810 ns         1 F61      -0.177900
     34 CAA          2.1460    -1.1630     2.0510 c          1 F61       0.570100
     35 OAA          1.8570    -2.2090     1.5100 o          1 F61      -0.655100
     36 CAB          2.6480    -1.1630     3.4720 c3         1 F61      -0.094400
     37 CAC          2.6990    -2.6000     3.9950 c3         1 F61      -0.016400
     38 CAD          3.2080    -2.6000     5.4380 c3         1 F61      -0.032400
     39 CAE          3.2590    -4.0360     5.9610 c3         1 F61      -0.027400
     40 CAF          3.7690    -4.0360     7.4040 c3         1 F61      -0.029400
     41 CAG          3.8190    -5.4730     7.9270 c3         1 F61      -0.029400
     42 CAH          4.3300    -5.4730     9.3690 c3         1 F61      -0.029400
     43 CAI          4.3800    -6.9100     9.8920 c3         1 F61      -0.029400
     44 CAJ          4.8900    -6.9100    11.3340 c3         1 F61      -0.028400
     45 CAK          4.9410    -8.3460    11.8580 c3         1 F61       0.005900
     46 H1          -0.3610    -0.0800    -1.0180 h1         1 F61       0.023200
     47 H2          -0.3610    -0.8420     0.5780 h1         1 F61       0.023200
     48 H3           1.8910    -0.8850    -0.5100 h1         1 F61       0.067700
     49 H4           1.7620     2.1300    -0.1570 h1         1 F61       0.028700
     50 H5           3.8430     0.2980    -1.4050 h1         1 F61       0.018700
     51 H6           3.5700     2.5270    -2.5170 hc         1 F61       0.028200
     52 H7           3.8750     3.3040    -0.9570 hc         1 F61       0.028200
     53 H8           6.0880     2.2040    -0.8420 hc         1 F61       0.015200
     54 H9           5.7830     1.4280    -2.4030 hc         1 F61       0.015200
     55 H10          1.1300     2.1840    -2.1790 ho         1 F61       0.400000
     56 H11         17.8840     8.2120    -8.1800 hc         1 F61       0.000033
     57 H12         18.1870     8.8710    -6.5670 hc         1 F61       0.000033
     58 H13         18.0640     9.9570    -7.9580 hc         1 F61       0.000033
     59 H14         15.6770     9.2670    -8.2350 hc         1 F61       0.011700
     60 H15         15.9820    10.0440    -6.6760 hc         1 F61       0.011700
     61 H16         15.8730     7.0460    -7.1670 hc         1 F61       0.014700
     62 H17         16.1770     7.8230    -5.6070 hc         1 F61       0.014700
     63 H18         13.9650     8.9210    -5.7230 hc         1 F61       0.014700
     64 H19         13.6610     8.1440    -7.2830 hc         1 F61       0.014700
     65 H20         13.8540     5.9220    -6.2140 hc         1 F61       0.014700
     66 H21         14.1580     6.6990    -4.6540 hc         1 F61       0.014700
     67 H22         11.9460     7.7970    -4.7700 hc         1 F61       0.014700
     68 H23         11.6420     7.0200    -6.3290 hc         1 F61       0.014700
     69 H24         12.1410     5.5760    -3.7010 hc         1 F61       0.014700
     70 H25         11.8380     4.7980    -5.2610 hc         1 F61       0.014700
     71 H26          9.6250     5.8960    -5.3770 hc         1 F61       0.014700
     72 H27          9.9280     6.6740    -3.8170 hc         1 F61       0.014700
     73 H28         10.1230     4.4520    -2.7480 hc         1 F61       0.014700
     74 H29          9.8190     3.6750    -4.3070 hc         1 F61       0.014700
     75 H30          7.9100     5.5500    -2.8640 hc         1 F61       0.014700
     76 H31          7.6060     4.7730    -4.4240 hc         1 F61       0.014700
     77 H32          8.1050     3.3280    -1.7950 hc         1 F61       0.014700
     78 H33          7.8000     2.5510    -3.3540 hc         1 F61       0.014700
     79 H34          5.5880     3.6510    -3.4700 hc         1 F61       0.015700
     80 H35          5.8930     4.4270    -1.9090 hc         1 F61       0.015700
     81 H36          4.9170     0.5760     0.4360 ho         1 F61       0.399000
     82 H37         -2.3160     1.0920    -0.3460 h2         1 F61       0.032700
     83 H38         -0.8300     0.5070     2.9040 h1         1 F61       0.033700
     84 H39         -2.1910    -0.2670     4.8640 h1         1 F61      -0.003800
     85 H40         -3.5830    -0.4390     3.7860 h1         1 F61      -0.003800
     86 H41         -2.5240    -2.4240     3.9160 ho         1 F61       0.390000
     87 H42         -1.8850     2.1520     4.3910 h1         1 F61       0.005700
     88 H43         -3.9850     2.4710     4.2880 ho         1 F61       0.391000
     89 H44         -0.6790     2.9910     2.4250 h1         1 F61       0.025700
     90 H45         -1.4560     4.8080     3.2050 ho         1 F61       0.390000
     91 H46         -3.3760     2.8290     1.0310 h1         1 F61       0.041700
     92 H47         -2.4310     4.1080    -0.3660 ho         1 F61       0.393000
     93 H48          2.2840     0.8600     1.8180 hn         1 F61       0.188500
     94 H49          1.9790    -0.5770     4.0910 hc         1 F61       0.024700
     95 H50          3.6410    -0.7320     3.5050 hc         1 F61       0.024700
     96 H51          1.7050    -3.0310     3.9630 hc         1 F61       0.031200
     97 H52          3.3670    -3.1860     3.3760 hc         1 F61       0.031200
     98 H53          2.5400    -2.0130     6.0570 hc         1 F61       0.009700
     99 H54          4.2010    -2.1680     5.4700 hc         1 F61       0.009700
    100 H55          2.2660    -4.4670     5.9290 hc         1 F61       0.016700
    101 H56          3.9270    -4.6220     5.3420 hc         1 F61       0.016700
    102 H57          3.1010    -3.4490     8.0230 hc         1 F61       0.013200
    103 H58          4.7620    -3.6050     7.4360 hc         1 F61       0.013200
    104 H59          2.8250    -5.9040     7.8960 hc         1 F61       0.015200
    105 H60          4.4860    -6.0600     7.3070 hc         1 F61       0.015200
    106 H61          5.3240    -5.0420     9.4000 hc         1 F61       0.013700
    107 H62          3.6630    -4.8860     9.9890 hc         1 F61       0.013700
    108 H63          3.3870    -7.3410     9.8610 hc         1 F61       0.015200
    109 H64          5.0480    -7.4970     9.2730 hc         1 F61       0.015200
    110 H65          5.8840    -6.4790    11.3660 hc         1 F61       0.011700
    111 H66          4.2230    -6.3230    11.9540 hc         1 F61       0.011700
    112 H67          5.5000    -8.3730    12.7860 hc         1 F61       0.000033
    113 H68          5.4250    -8.9810    11.1260 hc         1 F61       0.000033
    114 H69          3.9330    -8.7020    12.0340 hc         1 F61       0.000033
@<TRIPOS>BOND
     1     1     2 1   
     2     1    21 1   
     3     1    46 1   
     4     1    47 1   
     5     2     3 1   
     6     2    33 1   
     7     2    48 1   
     8     3     4 1   
     9     3     7 1   
    10     3    49 1   
    11     4     5 1   
    12     4    20 1   
    13     4    50 1   
    14     5     6 1   
    15     5    51 1   
    16     5    52 1   
    17     6    19 1   
    18     6    53 1   
    19     6    54 1   
    20     7    55 1   
    21     8     9 1   
    22     8    56 1   
    23     8    57 1   
    24     8    58 1   
    25     9    10 1   
    26     9    59 1   
    27     9    60 1   
    28    10    11 1   
    29    10    61 1   
    30    10    62 1   
    31    11    12 1   
    32    11    63 1   
    33    11    64 1   
    34    12    13 1   
    35    12    65 1   
    36    12    66 1   
    37    13    14 1   
    38    13    67 1   
    39    13    68 1   
    40    14    15 1   
    41    14    69 1   
    42    14    70 1   
    43    15    16 1   
    44    15    71 1   
    45    15    72 1   
    46    16    17 1   
    47    16    73 1   
    48    16    74 1   
    49    17    18 1   
    50    17    75 1   
    51    17    76 1   
    52    18    19 1   
    53    18    77 1   
    54    18    78 1   
    55    19    79 1   
    56    19    80 1   
    57    20    81 1   
    58    21    22 1   
    59    22    23 1   
    60    22    31 1   
    61    22    82 1   
    62    23    24 1   
    63    24    25 1   
    64    24    27 1   
    65    24    83 1   
    66    25    26 1   
    67    25    84 1   
    68    25    85 1   
    69    26    86 1   
    70    27    28 1   
    71    27    29 1   
    72    27    87 1   
    73    28    88 1   
    74    29    30 1   
    75    29    31 1   
    76    29    89 1   
    77    30    90 1   
    78    31    32 1   
    79    31    91 1   
    80    32    92 1   
    81    33    34 1   
    82    33    93 1   
    83    34    35 2   
    84    34    36 1   
    85    36    37 1   
    86    36    94 1   
    87    36    95 1   
    88    37    38 1   
    89    37    96 1   
    90    37    97 1   
    91    38    39 1   
    92    38    98 1   
    93    38    99 1   
    94    39    40 1   
    95    39   100 1   
    96    39   101 1   
    97    40    41 1   
    98    40   102 1   
    99    40   103 1   
   100    41    42 1   
   101    41   104 1   
   102    41   105 1   
   103    42    43 1   
   104    42   106 1   
   105    42   107 1   
   106    43    44 1   
   107    43   108 1   
   108    43   109 1   
   109    44    45 1   
   110    44   110 1   
   111    44   111 1   
   112    45   112 1   
   113    45   113 1   
   114    45   114 1   
@<TRIPOS>SUBSTRUCTURE
     1 F61         1 TEMP              0 ****  ****    0 ROOT
