@<TRIPOS>MOLECULE
F62
   70    74     1     0     0
SMALL
bcc


@<TRIPOS>ATOM
      1 C4           0.0000     0.0000     0.0000 ca         1 F62       0.452200
      2 C5           1.4130     0.0000     0.0000 ca         1 F62      -0.434400
      3 C6           2.0860     0.0000     1.2270 ca         1 F62       0.540200
      4 N1           1.3710    -0.0010     2.3370 nb         1 F62      -0.719000
      5 N3          -0.6370    -0.0010     1.1630 nb         1 F62      -0.725000
      6 CAR         -4.6620    -5.8560    -2.2440 c2         1 F62      -0.051000
      7 CAS         -5.1430    -4.6290    -2.4300 ce         1 F62      -0.248200
      8 CBE         -4.3670    -3.4610    -1.9870 c          1 F62       0.571300
      9 OAF         -3.2870    -3.6170    -1.4500 o          1 F62      -0.643100
     10 CBG         -4.1550    -1.1120    -1.6820 ca         1 F62      -0.090400
     11 CAO         -2.7660    -1.1110    -1.6840 ca         1 F62      -0.061000
     12 CAJ         -4.8480    -0.0110    -1.1970 ca         1 F62      -0.118000
     13 CAI         -4.1580     1.0830    -0.7110 ca         1 F62      -0.085000
     14 CAK         -2.7770     1.0850    -0.7050 ca         1 F62      -0.080000
     15 CBJ         -2.0770    -0.0110    -1.1950 ca         1 F62      -0.095400
     16 NBS         -0.6760    -0.0060    -1.1940 n          1 F62       0.137500
     17 CBM         -0.0130    -0.0050    -2.3640 c          1 F62       0.603700
     18 OAG         -0.6480    -0.0100    -3.4050 o          1 F62      -0.675500
     19 CAQ          1.3940     0.0010    -2.4200 cc         1 F62      -0.250200
     20 CBF          2.1250     0.0010    -1.2740 cd         1 F62       0.037600
     21 CAB          3.6310     0.0080    -1.3170 c3         1 F62       0.050100
     22 C2           0.0430    -0.0010     2.3000 ca         1 F62       0.735900
     23 NBB         -0.6540    -0.0020     3.4920 nu         1 F62      -0.245300
     24 CBK          0.0380    -0.0760     4.7100 ca         1 F62      -0.075400
     25 CBL         -0.5100    -0.7760     5.7820 ca         1 F62       0.154100
     26 CAP          0.1750    -0.8490     6.9840 ca         1 F62      -0.227000
     27 OBC         -1.7170    -1.3880     5.6500 os         1 F62      -0.313900
     28 CAA         -2.2190    -2.0880     6.7900 c3         1 F62       0.247700
     29 CAM          1.2720     0.5430     4.8460 ca         1 F62      -0.043000
     30 CAL          1.9550     0.4700     6.0450 ca         1 F62      -0.192000
     31 CBI          1.4080    -0.2230     7.1160 ca         1 F62       0.057600
     32 NBR          2.1010    -0.2950     8.3300 nh         1 F62      -0.366000
     33 CAV          3.3780     0.4270     8.2510 c3         1 F62       0.136800
     34 CAT          4.0670     0.3920     9.6160 c3         1 F62       0.152800
     35 NBQ          4.2790    -1.0060    10.0190 n3         1 F62      -0.548600
     36 CAC          5.0070    -1.0810    11.2930 c3         1 F62       0.189100
     37 CAU          3.0020    -1.7270    10.0990 c3         1 F62       0.152800
     38 CAW          2.3130    -1.6920     8.7330 c3         1 F62       0.136800
     39 H1           3.1690     0.0000     1.2650 h4         1 F62      -0.012900
     40 H2          -3.7000    -5.9950    -1.7670 ha         1 F62       0.091500
     41 H3          -5.2340    -6.7170    -2.5710 ha         1 F62       0.091500
     42 H5          -6.1050    -4.4910    -2.9070 ha         1 F62       0.104000
     43 H7          -5.7020    -2.0860    -2.6890 hn         1 F62       0.167500
     44 H8          -2.2220    -1.9660    -2.0660 ha         1 F62       0.155000
     45 H9          -5.9310    -0.0090    -1.2000 ha         1 F62       0.103000
     46 H10         -4.7010     1.9390    -0.3310 ha         1 F62       0.104000
     47 H11         -2.2390     1.9440    -0.3230 ha         1 F62       0.109000
     48 H12          1.8960     0.0010    -3.3800 ha         1 F62       0.140000
     49 H13          3.9630     0.0110    -2.3480 hc         1 F62       0.015367
     50 H14          4.0110    -0.8760    -0.8180 hc         1 F62       0.015367
     51 H15          4.0030     0.8930    -0.8160 hc         1 F62       0.015367
     52 H16         -1.6510     0.0920     3.4880 hn         1 F62       0.299800
     53 H17         -0.2510    -1.3910     7.8190 ha         1 F62       0.133000
     54 H18         -1.5400    -2.8920     7.0470 h1         1 F62      -0.001300
     55 H19         -2.3020    -1.4040     7.6260 h1         1 F62      -0.001300
     56 H20         -3.1950    -2.4990     6.5600 h1         1 F62      -0.001300
     57 H21          1.7010     1.0840     4.0110 ha         1 F62       0.143000
     58 H22          2.9170     0.9560     6.1500 ha         1 F62       0.126000
     59 H23          4.0150    -0.0480     7.5140 h1         1 F62       0.024950
     60 H24          3.1930     1.4560     7.9670 h1         1 F62       0.024950
     61 H25          3.4410     0.8870    10.3480 h1         1 F62       0.014450
     62 H26          5.0230     0.8970     9.5500 h1         1 F62       0.014450
     63 H28          5.9570    -0.5700    11.1970 h1         1 F62       0.000367
     64 H29          4.4200    -0.6090    12.0720 h1         1 F62       0.000367
     65 H30          5.1790    -2.1190    11.5500 h1         1 F62       0.000367
     66 H31          2.3650    -1.2520    10.8360 h1         1 F62       0.014450
     67 H32          3.1870    -2.7560    10.3830 h1         1 F62       0.014450
     68 H33          2.9400    -2.1870     8.0010 h1         1 F62       0.024950
     69 H34          1.3570    -2.1970     8.7980 h1         1 F62       0.024950
     70 NBA         -4.8540    -2.2190    -2.1750 ns         1 F62      -0.024100
@<TRIPOS>BOND
     1     1     2 ar  
     2     1     5 ar  
     3     1    16 1   
     4     2     3 ar  
     5     2    20 1   
     6     3     4 ar  
     7     3    39 1   
     8     4    22 ar  
     9     5    22 ar  
    10     6     7 2   
    11     6    40 1   
    12     6    41 1   
    13     7     8 1   
    14     7    42 1   
    15     8     9 2   
    16     8    70 1   
    17    10    11 ar  
    18    10    12 ar  
    19    10    70 1   
    20    11    15 ar  
    21    11    44 1   
    22    12    13 ar  
    23    12    45 1   
    24    13    14 ar  
    25    13    46 1   
    26    14    15 ar  
    27    14    47 1   
    28    15    16 1   
    29    16    17 1   
    30    17    18 2   
    31    17    19 1   
    32    19    20 2   
    33    19    48 1   
    34    20    21 1   
    35    21    49 1   
    36    21    50 1   
    37    21    51 1   
    38    22    23 1   
    39    23    24 1   
    40    23    52 1   
    41    24    25 ar  
    42    24    29 ar  
    43    25    26 ar  
    44    25    27 1   
    45    26    31 ar  
    46    26    53 1   
    47    27    28 1   
    48    28    54 1   
    49    28    55 1   
    50    28    56 1   
    51    29    30 ar  
    52    29    57 1   
    53    30    31 ar  
    54    30    58 1   
    55    31    32 1   
    56    32    33 1   
    57    32    38 1   
    58    33    34 1   
    59    33    59 1   
    60    33    60 1   
    61    34    35 1   
    62    34    61 1   
    63    34    62 1   
    64    35    36 1   
    65    35    37 1   
    66    36    63 1   
    67    36    64 1   
    68    36    65 1   
    69    37    38 1   
    70    37    66 1   
    71    37    67 1   
    72    38    68 1   
    73    38    69 1   
    74    43    70 1   
@<TRIPOS>SUBSTRUCTURE
     1 F62         1 TEMP              0 ****  ****    0 ROOT
