@<TRIPOS>MOLECULE
molecule
   70    74     1     0     0
SMALL
bcc


@<TRIPOS>ATOM
      1 C4           0.0000     0.0000     0.0000 ca         1 F62       0.649200
      2 C5           1.4130     0.0000     0.0000 ca         1 F62      -0.430400
      3 C6           2.0860     0.0000     1.2270 ca         1 F62       0.544200
      4 N1           1.3710    -0.0010     2.3370 nb         1 F62      -0.816000
      5 N3          -0.6370    -0.0010     1.1630 nb         1 F62      -0.827000
      6 CAR         -4.6620    -5.8560    -2.2440 c2         1 F62      -0.125000
      7 CAS         -5.1430    -4.6290    -2.4300 ce         1 F62      -0.253200
      8 CBE         -4.3670    -3.4610    -1.9870 c          1 F62       0.663300
      9 OAF         -3.2870    -3.6170    -1.4500 o          1 F62      -0.599100
     10 CBG         -4.1550    -1.1120    -1.6820 ca         1 F62       0.057600
     11 CAO         -2.7660    -1.1110    -1.6840 ca         1 F62      -0.096000
     12 CAJ         -4.8480    -0.0110    -1.1970 ca         1 F62      -0.154000
     13 CAI         -4.1580     1.0830    -0.7110 ca         1 F62      -0.113000
     14 CAK         -2.7770     1.0850    -0.7050 ca         1 F62      -0.116000
     15 CBJ         -2.0770    -0.0110    -1.1950 ca         1 F62       0.055600
     16 NBS         -0.6760    -0.0060    -1.1940 n          1 F62      -0.320500
     17 CBM         -0.0130    -0.0050    -2.3640 c          1 F62       0.709700
     18 OAG         -0.6480    -0.0100    -3.4050 o          1 F62      -0.622500
     19 CAQ          1.3940     0.0010    -2.4200 cc         1 F62      -0.262200
     20 CBF          2.1250     0.0010    -1.2740 cd         1 F62       0.032600
     21 CAB          3.6310     0.0080    -1.3170 c3         1 F62      -0.060900
     22 C2           0.0430    -0.0010     2.3000 ca         1 F62       0.978900
     23 NBB         -0.6540    -0.0020     3.4920 nu         1 F62      -0.728300
     24 CBK          0.0380    -0.0760     4.7100 ca         1 F62       0.096600
     25 CBL         -0.5100    -0.7760     5.7820 ca         1 F62       0.137100
     26 CAP          0.1750    -0.8490     6.9840 ca         1 F62      -0.233000
     27 OBC         -1.7170    -1.3880     5.6500 os         1 F62      -0.331900
     28 CAA         -2.2190    -2.0880     6.7900 c3         1 F62       0.130700
     29 CAM          1.2720     0.5430     4.8460 ca         1 F62      -0.066000
     30 CAL          1.9550     0.4700     6.0450 ca         1 F62      -0.208000
     31 CBI          1.4080    -0.2230     7.1160 ca         1 F62       0.129600
     32 NBR          2.1010    -0.2950     8.3300 nh         1 F62      -0.599000
     33 CAV          3.3780     0.4270     8.2510 c3         1 F62       0.165800
     34 CAT          4.0670     0.3920     9.6160 c3         1 F62       0.160300
     35 NBQ          4.2790    -1.0060    10.0190 n3         1 F62      -0.733600
     36 CAC          5.0070    -1.0810    11.2930 c3         1 F62       0.153100
     37 CAU          3.0020    -1.7270    10.0990 c3         1 F62       0.160300
     38 CAW          2.3130    -1.6920     8.7330 c3         1 F62       0.165800
     39 H1           3.1690     0.0000     1.2650 h4         1 F62       0.035100
     40 H2          -5.2340    -6.7170    -2.5710 ha         1 F62       0.131000
     41 H3          -3.7000    -5.9950    -1.7670 ha         1 F62       0.131000
     42 H5          -6.1050    -4.4910    -2.9070 ha         1 F62       0.126000
     43 H7          -5.7020    -2.0860    -2.6890 hn         1 F62       0.325500
     44 H8          -2.2220    -1.9660    -2.0660 ha         1 F62       0.177000
     45 H9          -5.9310    -0.0090    -1.2000 ha         1 F62       0.129000
     46 H10         -4.7010     1.9390    -0.3310 ha         1 F62       0.134000
     47 H11         -2.2390     1.9440    -0.3230 ha         1 F62       0.138000
     48 H12          1.8960     0.0010    -3.3800 ha         1 F62       0.166000
     49 H13          4.0110    -0.8760    -0.8180 hc         1 F62       0.052700
     50 H14          4.0030     0.8930    -0.8160 hc         1 F62       0.052700
     51 H15          3.9630     0.0110    -2.3480 hc         1 F62       0.052700
     52 H16         -1.6510     0.0920     3.4880 hn         1 F62       0.477800
     53 H17         -0.2510    -1.3910     7.8190 ha         1 F62       0.144000
     54 H18         -3.1950    -2.4990     6.5600 h1         1 F62       0.042367
     55 H19         -2.3020    -1.4040     7.6260 h1         1 F62       0.042367
     56 H20         -1.5400    -2.8920     7.0470 h1         1 F62       0.042367
     57 H21          1.7010     1.0840     4.0110 ha         1 F62       0.169000
     58 H22          2.9170     0.9560     6.1500 ha         1 F62       0.140000
     59 H23          4.0150    -0.0480     7.5140 h1         1 F62       0.050200
     60 H24          3.1930     1.4560     7.9670 h1         1 F62       0.050200
     61 H25          5.0230     0.8970     9.5500 h1         1 F62       0.042450
     62 H26          3.4410     0.8870    10.3480 h1         1 F62       0.042450
     63 H28          4.4200    -0.6090    12.0720 h1         1 F62       0.033033
     64 H29          5.1790    -2.1190    11.5500 h1         1 F62       0.033033
     65 H30          5.9570    -0.5700    11.1970 h1         1 F62       0.033033
     66 H31          3.1870    -2.7560    10.3830 h1         1 F62       0.042450
     67 H32          2.3650    -1.2520    10.8360 h1         1 F62       0.042450
     68 H33          2.9400    -2.1870     8.0010 h1         1 F62       0.050200
     69 H34          1.3570    -2.1970     8.7980 h1         1 F62       0.050200
     70 NBA         -4.8540    -2.2190    -2.1750 ns         1 F62      -0.472100
@<TRIPOS>BOND
     1    21    20 1
     2    19    20 2
     3    19    17 1
     4    18    17 2
     5    20     2 1
     6    17    16 1
     7     2     3 ar
     8     2     1 ar
     9    16     1 1
    10    16    15 1
    11     3     4 ar
    12     1     5 ar
    13    15    11 ar
    14    15    14 ar
    15    11    10 ar
    16    14    13 ar
    17    10    70 1
    18    10    12 ar
    19     4    22 ar
    20     5    22 ar
    21    70     8 1
    22    13    12 ar
    23    22    23 1
    24     6     7 2
    25     8     7 1
    26     8     9 2
    27    23    24 1
    28    29    24 ar
    29    29    30 ar
    30    24    25 ar
    31    30    31 ar
    32    25    27 1
    33    25    26 ar
    34    27    28 1
    35    31    26 ar
    36    31    32 1
    37    38    32 1
    38    38    37 1
    39    32    33 1
    40    33    34 1
    41    37    35 1
    42    35    34 1
    43    35    36 1
    44     3    39 1
    45     6    40 1
    46     6    41 1
    47     7    42 1
    48    70    43 1
    49    11    44 1
    50    12    45 1
    51    13    46 1
    52    14    47 1
    53    19    48 1
    54    21    49 1
    55    21    50 1
    56    21    51 1
    57    23    52 1
    58    26    53 1
    59    28    54 1
    60    28    55 1
    61    28    56 1
    62    29    57 1
    63    30    58 1
    64    33    59 1
    65    33    60 1
    66    34    61 1
    67    34    62 1
    68    36    63 1
    69    36    64 1
    70    36    65 1
    71    37    66 1
    72    37    67 1
    73    38    68 1
    74    38    69 1
@<TRIPOS>SUBSTRUCTURE
     1 F62         1 TEMP              0 ****  ****    0 ROOT
