@<TRIPOS>MOLECULE
F63
   28    29     1     0     0
SMALL
bcc


@<TRIPOS>ATOM
      1 O1         -0.1590   -0.8830   -0.5780 os        1 F63     -0.305400
      2 N2          2.6280    1.3240   -1.5800 nb        1 F63     -0.650000
      3 C3          1.4010    0.9090   -1.2180 ca        1 F63      0.383200
      4 C4          1.0860   -0.4560   -1.0630 ca        1 F63     -0.050200
      5 C5          2.0670   -1.4370   -1.2670 ca        1 F63     -0.069000
      6 C6          3.3430   -0.9990   -1.6220 ca        1 F63     -0.219300
      7 C7          3.5740    0.3830   -1.7710 ca        1 F63      0.408200
      8 C8         -1.2640   -0.4700   -1.2280 cc        1 F63      0.551000
      9 O9         -1.0910    0.3370   -2.3410 os        1 F63     -0.404800
     10 C10        -2.4060    0.6190   -2.7990 cc        1 F63      0.046000
     11 C11        -3.3350   -0.0040   -1.9780 cd        1 F63     -0.091300
     12 C12        -2.6120   -0.7090   -0.9600 cd        1 F63     -0.298300
     13 C13        -2.4730    1.3850   -4.0420 c3        1 F63      0.123500
     14 N14        -1.9620    2.7900   -3.8320 n4        1 F63     -0.769000
     15 C15        -1.9870    3.5850   -5.0770 c3        1 F63      0.077100
     16 H5          1.8340   -2.5040   -1.1330 ha        1 F63      0.172000
     17 H6          4.1580   -1.7200   -1.7830 ha        1 F63      0.168000
     18 H7          4.5740    0.7620   -2.0550 h4        1 F63      0.044100
     19 H11        -4.4210    0.0200   -2.0750 ha        1 F63      0.184000
     20 H12        -3.0220   -1.3120   -0.1540 ha        1 F63      0.206000
     21 H13        -3.5380    1.4450   -4.4070 hx        1 F63      0.117700
     22 H13A       -1.8240    0.9170   -4.8410 hx        1 F63      0.117700
     23 HN14       -2.5340    3.2490   -3.1120 hn        1 F63      0.456800
     24 H15        -1.3380    3.0940   -5.8510 hx        1 F63      0.108700
     25 H15A       -3.0400    3.6500   -5.4610 hx        1 F63      0.108700
     26 H15B       -1.6000    4.6190   -4.8670 hx        1 F63      0.108700
     27 H142       -0.9990    2.7310   -3.4720 hn        1 F63      0.456800
     28 H3          0.6410    1.6880   -1.0440 h4        1 F63      0.019100
@<TRIPOS>BOND
     1    1    4 1
     2    1    8 1
     3    2    3 ar
     4    2    7 ar
     5    3    4 ar
     6    3   28 1
     7    4    5 ar
     8    5    6 ar
     9    5   16 1
    10    6    7 ar
    11    6   17 1
    12    7   18 1
    13    8    9 1
    14    8   12 2
    15    9   10 1
    16   10   11 2
    17   10   13 1
    18   11   12 1
    19   11   19 1
    20   12   20 1
    21   13   14 1
    22   13   21 1
    23   13   22 1
    24   14   15 1
    25   14   23 1
    26   14   27 1
    27   15   24 1
    28   15   25 1
    29   15   26 1
@<TRIPOS>SUBSTRUCTURE
     1 F63         1 TEMP              0 ****  ****    0 ROOT
