@<TRIPOS>MOLECULE
F65
   81    84     1     0     0
SMALL
bcc


@<TRIPOS>ATOM
      1 C4           0.0000     0.0000     0.0000 ca         1 F65      -0.049000
      2 C14          1.3940    -2.5390     4.4510 ca         1 F65      -0.168500
      3 C5           1.3790     0.0000     0.0000 ca         1 F65      -0.171000
      4 C6           2.0750     0.0000     1.2030 ca         1 F65       0.015600
      5 C11          5.1880    -0.8910     2.6470 c3         1 F65      -0.032400
      6 C7           3.9940     0.3190    -0.1470 c3         1 F65       0.128300
      7 C8           5.5030     0.0450    -0.2930 c3         1 F65      -0.032400
      8 C9           6.2980     0.4910     0.9050 c3         1 F65      -0.025900
      9 C10          6.4190    -0.6920     1.8920 c3         1 F65      -0.025900
     10 C12          3.9870    -1.2310     1.7450 c3         1 F65       0.128300
     11 C13          1.3810    -0.0010     2.4160 ca         1 F65       0.039600
     12 N1           3.4690    -0.0000     1.1980 nh         1 F65      -0.357000
     13 N2           2.0860    -0.0060     3.6270 nu         1 F65      -0.393500
     14 C3          -0.7000     0.0060     1.2090 ca         1 F65      -0.147600
     15 N3          -1.6810   -13.6430     4.5040 n3         1 F65      -0.543600
     16 O2          -2.7820     0.0160     2.2610 o          1 F65      -0.579000
     17 C2          -2.1740     0.0100     1.2080 c          1 F65       0.715700
     18 O1          -2.8480     0.0100     0.0410 os         1 F65      -0.420900
     19 C1          -4.2980     0.0160     0.1160 c3         1 F65       0.271700
     20 C30         -0.0000    -0.0000     2.4210 ca         1 F65      -0.098000
     21 S            1.4940    -0.8450     4.9260 sy         1 F65       1.038200
     22 O4           0.1570    -0.4010     5.1140 o          1 F65      -0.582800
     23 O3           2.4870    -0.7700     5.9380 o          1 F65      -0.582800
     24 C15          2.4710    -3.3800     4.6590 ca         1 F65       0.007000
     25 C16          2.3910    -4.7090     4.2860 ca         1 F65      -0.131500
     26 C17          1.2360    -5.1970     3.7040 ca         1 F65      -0.032300
     27 C28          0.1590    -4.3550     3.4970 ca         1 F65      -0.131500
     28 C29          0.2360    -3.0280     3.8750 ca         1 F65       0.007000
     29 C18          1.1510    -6.6440     3.2970 c3         1 F65       0.019900
     30 C19          0.6080    -7.4720     4.4640 c3         1 F65      -0.024400
     31 C20          0.5210    -8.9420     4.0500 c3         1 F65      -0.036400
     32 C21         -0.0220    -9.7690     5.2170 c3         1 F65      -0.023400
     33 C22         -0.1100   -11.2400     4.8030 c3         1 F65      -0.053700
     34 C23         -1.1460   -11.3970     3.6880 c3         1 F65      -0.026900
     35 C24         -1.2730   -12.8760     3.3210 c3         1 F65       0.156800
     36 C26         -0.6780   -13.5450     5.5730 c3         1 F65       0.156800
     37 C27         -0.5330   -12.0860     6.0070 c3         1 F65      -0.026900
     38 H1          -0.5410    -0.0000    -0.9380 ha         1 F65       0.116000
     39 H2           1.9190    -0.0020    -0.9390 ha         1 F65       0.130000
     40 H3           4.9660     0.0160     3.1960 hc         1 F65       0.018950
     41 H4           5.3380    -1.7030     3.3480 hc         1 F65       0.018950
     42 H5           3.8120     1.3670    -0.3500 h1         1 F65       0.022700
     43 H6           3.4630    -0.2790    -0.8770 h1         1 F65       0.022700
     44 H7           5.6510    -1.0190    -0.4320 hc         1 F65       0.018950
     45 H8           5.8680     0.5710    -1.1670 hc         1 F65       0.018950
     46 H9           7.2860     0.8010     0.5880 hc         1 F65       0.018700
     47 H10          5.7900     1.3170     1.3900 hc         1 F65       0.018700
     48 H11          7.2280    -0.4900     2.5850 hc         1 F65       0.018700
     49 H12          6.6400    -1.5940     1.3350 hc         1 F65       0.018700
     50 H13          4.3090    -1.8810     0.9400 h1         1 F65       0.022700
     51 H14          3.2190    -1.7210     2.3320 h1         1 F65       0.022700
     52 H15          2.9110     0.5520     3.7270 hn         1 F65       0.360800
     53 H17         -4.6350    -0.8660     0.6470 h1         1 F65       0.000700
     54 H18         -4.7110     0.0150    -0.8850 h1         1 F65       0.000700
     55 H19         -4.6280     0.9030     0.6420 h1         1 F65       0.000700
     56 H20         -0.5410     0.0020     3.3600 ha         1 F65       0.195000
     57 H21          3.3760    -2.9980     5.1140 ha         1 F65       0.127000
     58 H22          3.2350    -5.3680     4.4480 ha         1 F65       0.114000
     59 H23         -0.7480    -4.7370     3.0440 ha         1 F65       0.114000
     60 H24         -0.6080    -2.3690     3.7120 ha         1 F65       0.127000
     61 H25          0.4880    -6.7420     2.4460 hc         1 F65       0.021200
     62 H26          2.1380    -7.0020     3.0290 hc         1 F65       0.021200
     63 H27         -0.3790    -7.1140     4.7320 hc         1 F65       0.019700
     64 H28          1.2710    -7.3750     5.3150 hc         1 F65       0.019700
     65 H29         -0.1420    -9.0390     3.1990 hc         1 F65       0.017700
     66 H30          1.5080    -9.3000     3.7820 hc         1 F65       0.017700
     67 H31         -1.0080    -9.4100     5.4860 hc         1 F65       0.018200
     68 H32          0.6410    -9.6720     6.0680 hc         1 F65       0.018200
     69 H33          0.8560   -11.5780     4.4470 hc         1 F65       0.026700
     70 H34         -2.1050   -11.0280     4.0320 hc         1 F65       0.022700
     71 H35         -0.8280   -10.8360     2.8180 hc         1 F65       0.022700
     72 H36         -0.3160   -13.2420     2.9670 h1         1 F65       0.006950
     73 H37         -2.0180   -12.9910     2.5430 h1         1 F65       0.006950
     74 H38         -1.0390   -15.5030     3.7840 h1         1 F65      -0.000633
     75 H39         -2.7150   -15.0910     3.3960 h1         1 F65      -0.000633
     76 H40         -2.2810   -15.5780     5.0410 h1         1 F65      -0.000633
     77 H41         -0.9950   -14.1420     6.4190 h1         1 F65       0.006950
     78 H42          0.2750   -13.9070     5.2060 h1         1 F65       0.006950
     79 H43         -1.4830   -11.7260     6.3840 hc         1 F65       0.022700
     80 H44          0.2200   -12.0130     6.7810 hc         1 F65       0.022700
     81 C25         -1.9460   -15.0460     4.1580 c3         1 F65       0.188100
@<TRIPOS>BOND
     1     1     3 ar  
     2     1    14 ar  
     3     1    38 1   
     4     2    21 1   
     5     2    24 ar  
     6     2    28 ar  
     7     3     4 ar  
     8     3    39 1   
     9     4    11 ar  
    10     4    12 1   
    11     5     9 1   
    12     5    10 1   
    13     5    40 1   
    14     5    41 1   
    15     6     7 1   
    16     6    12 1   
    17     6    42 1   
    18     6    43 1   
    19     7     8 1   
    20     7    44 1   
    21     7    45 1   
    22     8     9 1   
    23     8    46 1   
    24     8    47 1   
    25     9    48 1   
    26     9    49 1   
    27    10    12 1   
    28    10    50 1   
    29    10    51 1   
    30    11    13 1   
    31    11    20 ar  
    32    13    21 1   
    33    13    52 1   
    34    14    17 1   
    35    14    20 ar  
    36    15    35 1   
    37    15    36 1   
    38    15    81 1   
    39    16    17 2   
    40    17    18 1   
    41    18    19 1   
    42    19    53 1   
    43    19    54 1   
    44    19    55 1   
    45    20    56 1   
    46    21    22 2   
    47    21    23 2   
    48    24    25 ar  
    49    24    57 1   
    50    25    26 ar  
    51    25    58 1   
    52    26    27 ar  
    53    26    29 1   
    54    27    28 ar  
    55    27    59 1   
    56    28    60 1   
    57    29    30 1   
    58    29    61 1   
    59    29    62 1   
    60    30    31 1   
    61    30    63 1   
    62    30    64 1   
    63    31    32 1   
    64    31    65 1   
    65    31    66 1   
    66    32    33 1   
    67    32    67 1   
    68    32    68 1   
    69    33    34 1   
    70    33    37 1   
    71    33    69 1   
    72    34    35 1   
    73    34    70 1   
    74    34    71 1   
    75    35    72 1   
    76    35    73 1   
    77    36    37 1   
    78    36    77 1   
    79    36    78 1   
    80    37    79 1   
    81    37    80 1   
    82    74    81 1   
    83    75    81 1   
    84    76    81 1   
@<TRIPOS>SUBSTRUCTURE
     1 F65         1 TEMP              0 ****  ****    0 ROOT
