@<TRIPOS>MOLECULE
F67
   30    32     1     0     0
SMALL
bcc


@<TRIPOS>ATOM
      1 O1           0.0000     0.0000     0.0000 o          1 F67      -0.675500
      2 C16          1.2160     0.0000     0.0000 c          1 F67       0.645100
      3 N15          1.9830     0.0000     1.1030 ns         1 F67      -0.195900
      4 C14          3.3930     0.0020     0.6990 c3         1 F67       0.073000
      5 C18          4.0920     1.2550     1.2280 c3         1 F67      -0.005100
      6 C10          3.3990     0.0030    -0.8100 ca         1 F67      -0.073300
      7 C9           4.4020     0.0050    -1.7460 ca         1 F67      -0.090000
      8 C11          2.0570    -0.0040    -1.2100 ca         1 F67      -0.188600
      9 C12          1.7440    -0.0090    -2.5720 ca         1 F67       0.006000
     10 C13          2.7540    -0.0120    -3.5080 ca         1 F67      -0.153000
     11 C8           4.0860     0.0070    -3.1030 ca         1 F67       0.021600
     12 N7           5.1020     0.0050    -4.0550 nu         1 F67      -0.296300
     13 C3           6.2820     0.6930    -3.8110 ca         1 F67       0.522200
     14 N2           6.4100     1.4510    -2.7250 nb         1 F67      -0.692000
     15 C4           7.3550     0.5960    -4.6980 ca         1 F67      -0.420600
     16 C5           8.5080     1.3000    -4.4110 ca         1 F67       0.489200
     17 N6           8.5580     2.0390    -3.3120 nb         1 F67      -0.679000
     18 C1           7.5280     2.1050    -2.4910 ca         1 F67       0.673900
     19 H1           1.6470    -0.0010     2.0460 hn         1 F67       0.202500
     20 H2           3.8850    -0.8890     1.0700 h1         1 F67       0.033700
     21 H3           3.7000     2.1280     0.7200 hc         1 F67       0.013700
     22 H4           3.9130     1.3460     2.2920 hc         1 F67       0.013700
     23 H5           5.1570     1.1790     1.0450 hc         1 F67       0.013700
     24 H6           5.4380     0.0200    -1.4300 ha         1 F67       0.135000
     25 H7           0.7090    -0.0240    -2.8900 ha         1 F67       0.116000
     26 H8           2.5100    -0.0110    -4.5640 ha         1 F67       0.110000
     27 H9           4.9930    -0.5170    -4.9020 hn         1 F67       0.290800
     28 H10          7.2860    -0.0160    -5.5890 ha         1 F67       0.126000
     29 H11          9.3610     1.2500    -5.0770 h4         1 F67      -0.016900
     30 H12          7.6040     2.7170    -1.6010 h5         1 F67      -0.002900
@<TRIPOS>BOND
     1     1     2 2   
     2     2     3 1   
     3     2     8 1   
     4     3     4 1   
     5     3    19 1   
     6     4     5 1   
     7     4     6 1   
     8     4    20 1   
     9     5    21 1   
    10     5    22 1   
    11     5    23 1   
    12     6     7 ar  
    13     6     8 ar  
    14     7    11 ar  
    15     7    24 1   
    16     8     9 ar  
    17     9    10 ar  
    18     9    25 1   
    19    10    11 ar  
    20    10    26 1   
    21    11    12 1   
    22    12    13 1   
    23    12    27 1   
    24    13    14 ar  
    25    13    15 ar  
    26    14    18 ar  
    27    15    16 ar  
    28    15    28 1   
    29    16    17 ar  
    30    16    29 1   
    31    17    18 ar  
    32    18    30 1   
@<TRIPOS>SUBSTRUCTURE
     1 F67         1 TEMP              0 ****  ****    0 ROOT
