@<TRIPOS>MOLECULE
molecule
   44    45     1     0     0
SMALL
bcc


@<TRIPOS>ATOM
      1 C10          0.0000     0.0000     0.0000 ca         1 F68      -0.080500
      2 C11          1.3790     0.0000     0.0000 ca         1 F68      -0.138000
      3 C12          2.0740     0.0000     1.1960 ca         1 F68      -0.055300
      4 C15          3.5810    -0.0000     1.1870 c3         1 F68      -0.052800
      5 C13          1.3920     0.0000     2.3990 ca         1 F68      -0.138000
      6 C14          0.0130     0.0000     2.4150 ca         1 F68      -0.080500
      7 C9          -0.6950     0.0000     1.2110 ca         1 F68      -0.157600
      8 C8          -2.1730    -0.0000     1.2190 c          1 F68       0.676700
      9 O8          -2.7860    -0.0010     0.1700 o          1 F68      -0.518100
     10 N2          -2.8400    -0.0000     2.3900 ns         1 F68      -0.590500
     11 C7          -4.1880    -0.0010     2.3970 c          1 F68       0.781100
     12 O7          -4.8020    -0.0010     1.3480 o          1 F68      -0.572100
     13 N1          -4.8550    -0.0000     3.5680 ns         1 F68      -0.580900
     14 C1          -6.3210    -0.0010     3.5760 c3         1 F68       0.334500
     15 O5          -6.7970     1.3410     3.6960 os         1 F68      -0.418600
     16 C5          -8.2210     1.4580     3.6880 c3         1 F68       0.154100
     17 C6          -8.6130     2.9330     3.7920 c3         1 F68       0.152400
     18 O6          -8.1700     3.6280     2.6230 oh         1 F68      -0.592800
     19 C4          -8.8010     0.6900     4.8780 c3         1 F68       0.100100
     20 O4         -10.2280     0.7570     4.8400 oh         1 F68      -0.599800
     21 C3          -8.3540    -0.7730     4.7990 c3         1 F68       0.112100
     22 O3          -8.8300    -1.4810     5.9460 oh         1 F68      -0.607800
     23 C2          -6.8240    -0.8270     4.7620 c3         1 F68       0.095100
     24 O2          -6.3970    -2.1820     4.6160 oh         1 F68      -0.590800
     25 H10         -0.5430     0.0000    -0.9380 ha         1 F68       0.140000
     26 H11          1.9190    -0.0000    -0.9390 ha         1 F68       0.136000
     27 H15          3.9420    -1.0210     1.1610 hc         1 F68       0.047033
     28 H15A         3.9480     0.4890     2.0810 hc         1 F68       0.047033
     29 H15B         3.9370     0.5310     0.3130 hc         1 F68       0.047033
     30 H13          1.9430    -0.0000     3.3320 ha         1 F68       0.136000
     31 H14         -0.5190     0.0000     3.3580 ha         1 F68       0.140000
     32 HN2         -2.3350    -0.0130     3.2540 hn         1 F68       0.313500
     33 HN1         -4.3500     0.0140     4.4320 hn         1 F68       0.307500
     34 H1          -6.6910    -0.4330     2.6550 h2         1 F68       0.100700
     35 H5          -8.6110     1.0410     2.7670 h1         1 F68       0.071700
     36 H6          -8.1490     3.3690     4.6680 h1         1 F68       0.034200
     37 H6A         -9.6900     3.0150     3.8740 h1         1 F68       0.034200
     38 HO6         -8.5330     4.4980     2.6190 ho         1 F68       0.402000
     39 H4          -8.4380     1.1280     5.8010 h1         1 F68       0.053700
     40 HO4        -10.5580     0.9380     5.7040 ho         1 F68       0.413000
     41 H3          -8.7530    -1.2230     3.8980 h1         1 F68       0.067700
     42 HO3         -9.4120    -2.1700     5.6700 ho         1 F68       0.417000
     43 H2          -6.4270    -0.4150     5.6820 h1         1 F68       0.049700
     44 HO2         -6.1050    -2.5120     5.4490 ho         1 F68       0.411000
@<TRIPOS>BOND
     1     1     2 ar
     2     1     7 ar
     3     2     3 ar
     4     3     4 1
     5     3     5 ar
     6     5     6 ar
     7     6     7 ar
     8     7     8 1
     9     8     9 2
    10     8    10 1
    11    10    11 1
    12    11    12 2
    13    11    13 1
    14    13    14 1
    15    14    15 1
    16    14    23 1
    17    15    16 1
    18    16    17 1
    19    16    19 1
    20    17    18 1
    21    19    20 1
    22    19    21 1
    23    21    22 1
    24    21    23 1
    25    23    24 1
    26     1    25 1
    27     2    26 1
    28     4    27 1
    29     4    28 1
    30     4    29 1
    31     5    30 1
    32     6    31 1
    33    10    32 1
    34    13    33 1
    35    14    34 1
    36    16    35 1
    37    17    36 1
    38    17    37 1
    39    18    38 1
    40    19    39 1
    41    20    40 1
    42    21    41 1
    43    22    42 1
    44    23    43 1
    45    24    44 1
@<TRIPOS>SUBSTRUCTURE
     1 F68         1 TEMP              0 ****  ****    0 ROOT
