@<TRIPOS>MOLECULE
F68
   44    45     1     0     0
SMALL
bcc


@<TRIPOS>ATOM
      1 C10          0.0000     0.0000     0.0000 ca         1 F68      -0.053000
      2 C11          1.3790     0.0000     0.0000 ca         1 F68      -0.112500
      3 C12          2.0740     0.0000     1.1960 ca         1 F68      -0.063300
      4 C15          3.5810    -0.0000     1.1870 c3         1 F68       0.059200
      5 C13          1.3920     0.0000     2.3990 ca         1 F68      -0.112500
      6 C14          0.0130     0.0000     2.4150 ca         1 F68      -0.053000
      7 C9          -0.6950     0.0000     1.2110 ca         1 F68      -0.171600
      8 C8          -2.1730    -0.0000     1.2190 c          1 F68       0.588700
      9 O8          -2.7860    -0.0010     0.1700 o          1 F68      -0.549100
     10 N2          -2.8400    -0.0000     2.3900 ns         1 F68      -0.179500
     11 C7          -4.1880    -0.0010     2.3970 c          1 F68       0.567100
     12 O7          -4.8020    -0.0010     1.3480 o          1 F68      -0.611100
     13 N1          -4.8550    -0.0000     3.5680 ns         1 F68      -0.193900
     14 C1          -6.3210    -0.0010     3.5760 c3         1 F68       0.236500
     15 O5          -6.7970     1.3410     3.6960 os         1 F68      -0.400600
     16 C5          -8.2210     1.4580     3.6880 c3         1 F68       0.173100
     17 C6          -8.6130     2.9330     3.7920 c3         1 F68       0.225400
     18 O6          -8.1700     3.6280     2.6230 oh         1 F68      -0.575800
     19 C4          -8.8010     0.6900     4.8780 c3         1 F68       0.138100
     20 O4         -10.2280     0.7570     4.8400 oh         1 F68      -0.579800
     21 C3          -8.3540    -0.7730     4.7990 c3         1 F68       0.149100
     22 O3          -8.8300    -1.4810     5.9460 oh         1 F68      -0.590800
     23 C2          -6.8240    -0.8270     4.7620 c3         1 F68       0.130100
     24 O2          -6.3970    -2.1820     4.6160 oh         1 F68      -0.573800
     25 H10         -0.5430     0.0000    -0.9380 ha         1 F68       0.112500
     26 H11          1.9190    -0.0000    -0.9390 ha         1 F68       0.109500
     27 H15          3.9420    -1.0210     1.1610 hc         1 F68       0.009700
     28 H15A         3.9480     0.4890     2.0810 hc         1 F68       0.009700
     29 H15B         3.9370     0.5310     0.3130 hc         1 F68       0.009700
     30 H13          1.9430    -0.0000     3.3320 ha         1 F68       0.109500
     31 H14         -0.5190     0.0000     3.3580 ha         1 F68       0.112500
     32 HN2         -2.3350    -0.0130     3.2540 hn         1 F68       0.168500
     33 HN1         -4.3500     0.0140     4.4320 hn         1 F68       0.161500
     34 H1          -6.6910    -0.4330     2.6550 h2         1 F68       0.066700
     35 H5          -8.6110     1.0410     2.7670 h1         1 F68       0.037700
     36 H6          -8.1490     3.3690     4.6680 h1         1 F68      -0.004300
     37 H6A         -9.6900     3.0150     3.8740 h1         1 F68      -0.004300
     38 HO6         -8.5330     4.4980     2.6190 ho         1 F68       0.387000
     39 H4          -8.4380     1.1280     5.8010 h1         1 F68       0.018700
     40 HO4        -10.5580     0.9380     5.7040 ho         1 F68       0.398000
     41 H3          -8.7530    -1.2230     3.8980 h1         1 F68       0.031700
     42 HO3         -9.4120    -2.1700     5.6700 ho         1 F68       0.403000
     43 H2          -6.4270    -0.4150     5.6820 h1         1 F68       0.016700
     44 HO2         -6.1050    -2.5120     5.4490 ho         1 F68       0.397000
@<TRIPOS>BOND
     1     1     2 ar  
     2     1     7 ar  
     3     1    25 1   
     4     2     3 ar  
     5     2    26 1   
     6     3     4 1   
     7     3     5 ar  
     8     4    27 1   
     9     4    28 1   
    10     4    29 1   
    11     5     6 ar  
    12     5    30 1   
    13     6     7 ar  
    14     6    31 1   
    15     7     8 1   
    16     8     9 2   
    17     8    10 1   
    18    10    11 1   
    19    10    32 1   
    20    11    12 2   
    21    11    13 1   
    22    13    14 1   
    23    13    33 1   
    24    14    15 1   
    25    14    23 1   
    26    14    34 1   
    27    15    16 1   
    28    16    17 1   
    29    16    19 1   
    30    16    35 1   
    31    17    18 1   
    32    17    36 1   
    33    17    37 1   
    34    18    38 1   
    35    19    20 1   
    36    19    21 1   
    37    19    39 1   
    38    20    40 1   
    39    21    22 1   
    40    21    23 1   
    41    21    41 1   
    42    22    42 1   
    43    23    24 1   
    44    23    43 1   
    45    24    44 1   
@<TRIPOS>SUBSTRUCTURE
     1 F68         1 TEMP              0 ****  ****    0 ROOT
