@<TRIPOS>MOLECULE
F69
   23    24     1     0     0
SMALL
bcc


@<TRIPOS>ATOM
      1 C1          0.0290   -0.1460   -0.0290 ca        1 F69     -0.018000
      2 C2          1.3970   -0.4520    0.0100 ca        1 F69     -0.116000
      3 C3          2.0790   -0.4960    1.2240 ca        1 F69     -0.132000
      4 C4          1.4010   -0.2360    2.4130 ca        1 F69     -0.127000
      5 C5          0.0420    0.0680    2.3880 ca        1 F69     -0.107000
      6 C6         -0.6530    0.1160    1.1760 ca        1 F69     -0.066300
      7 C7         -0.6530   -0.1010   -1.3060 cc        1 F69     -0.070100
      8 C8         -1.1270    1.0300   -1.9460 cd        1 F69     -0.149000
      9 C9         -1.7310    0.7150   -3.2030 cd        1 F69     -0.158000
     10 C10        -1.6880   -0.6380   -3.4610 cc        1 F69     -0.173100
     11 S11        -0.9460   -1.4810   -2.2300 ss        1 F69      0.026200
     12 C12        -2.1130    0.4270    1.1370 c3        1 F69      0.173700
     13 O13        -2.5580    0.7920    2.4370 oh        1 F69     -0.602800
     14 H2          1.9340   -0.6520   -0.9290 ha        1 F69      0.136000
     15 H3          3.1520   -0.7360    1.2400 ha        1 F69      0.132000
     16 H4          1.9380   -0.2690    3.3730 ha        1 F69      0.133000
     17 H5         -0.4990    0.2760    3.3260 ha        1 F69      0.156000
     18 H8         -1.0490    2.0480   -1.5570 ha        1 F69      0.157000
     19 H9         -2.1630    1.4700   -3.8620 ha        1 F69      0.153000
     20 H10        -2.0820   -1.1230   -4.3530 h4        1 F69      0.171000
     21 H12        -2.3020    1.2750    0.4200 h1        1 F69      0.038200
     22 H12A       -2.6820   -0.4780    0.7850 h1        1 F69      0.038200
     23 HO13       -3.4960    0.9960    2.3490 ho        1 F69      0.403000
@<TRIPOS>BOND
     1    1    2 ar  
     2    1    6 ar  
     3    1    7 1   
     4    2    3 ar  
     5    2   14 1   
     6    3    4 ar  
     7    3   15 1   
     8    4    5 ar  
     9    4   16 1   
    10    5    6 ar  
    11    5   17 1   
    12    6   12 1   
    13    7    8 2   
    14    7   11 1   
    15    8    9 1   
    16    8   18 1   
    17    9   10 2   
    18    9   19 1   
    19   10   11 1   
    20   10   20 1   
    21   12   13 1   
    22   12   21 1   
    23   12   22 1   
    24   13   23 1   
@<TRIPOS>SUBSTRUCTURE
     1 F69         1 TEMP              0 ****  ****    0 ROOT
