@<TRIPOS>MOLECULE
molecule
   23    24     1     0     0
SMALL
bcc


@<TRIPOS>ATOM
      1 C1           0.0000     0.0000     0.0000 ca         1 F69      -0.015000
      2 C2           1.3960     0.0000     0.0000 ca         1 F69      -0.109000
      3 C3           2.0820     0.0000     1.1960 ca         1 F69      -0.130000
      4 C4           1.3900    -0.0010     2.3950 ca         1 F69      -0.127000
      5 C5           0.0070    -0.0010     2.4020 ca         1 F69      -0.101000
      6 C6          -0.6920    -0.0010     1.2120 ca         1 F69      -0.074300
      7 C7          -0.7430     0.0060    -1.2780 cc         1 F69       0.016900
      8 C8          -0.5180     0.8500    -2.3050 cd         1 F69      -0.147000
      9 C9          -1.3410     0.6630    -3.3960 cd         1 F69      -0.155000
     10 C10         -2.2310    -0.3250    -3.2710 cc         1 F69      -0.075100
     11 S11         -2.0500    -1.0930    -1.6990 ss         1 F69      -0.159800
     12 C12         -2.1990    -0.0010     1.2210 c3         1 F69       0.183700
     13 O13         -2.6670    -0.0020     2.5720 oh         1 F69      -0.612800
     14 H2           1.9380     0.0010    -0.9370 ha         1 F69       0.136000
     15 H3           3.1650     0.0000     1.1980 ha         1 F69       0.131000
     16 H4           1.9340    -0.0010     3.3320 ha         1 F69       0.131000
     17 H5          -0.5290    -0.0020     3.3430 ha         1 F69       0.155000
     18 H8           0.2470     1.6160    -2.2740 ha         1 F69       0.152000
     19 H9          -1.2700     1.2730    -4.2890 ha         1 F69       0.148000
     20 H10         -2.9530    -0.6130    -4.0260 h4         1 F69       0.170000
     21 H12         -2.5630     0.8830     0.7130 h1         1 F69       0.038700
     22 H12A        -2.5630    -0.8860     0.7130 h1         1 F69       0.038700
     23 HO13        -3.6090     0.0350     2.5780 ho         1 F69       0.406000
@<TRIPOS>BOND
     1     7     1 1
     2     1     6 ar
     3     1     2 ar
     4     2     3 ar
     5     2    14 1
     6     3     4 ar
     7     3    15 1
     8     5     4 ar
     9     4    16 1
    10     6     5 ar
    11     5    17 1
    12    12     6 1
    13     8     7 2
    14    11     7 1
    15     9     8 1
    16     8    18 1
    17     9    10 2
    18     9    19 1
    19    10    11 1
    20    10    20 1
    21    13    12 1
    22    12    21 1
    23    12    22 1
    24    13    23 1
@<TRIPOS>SUBSTRUCTURE
     1 F69         1 TEMP              0 ****  ****    0 ROOT
