@<TRIPOS>MOLECULE
molecule
   39    41     1     0     0
SMALL
bcc


@<TRIPOS>ATOM
      1 N            0.0000     0.0000     0.0000 ns         1 F6A      -0.471100
      2 O            1.9560     0.0980     1.0480 o          1 F6A      -0.571100
      3 F1           5.6150    -0.0190    -0.2420 f          1 F6A      -0.214967
      4 C2           3.4830    -0.1180    -1.2790 ca         1 F6A      -0.123300
      5 F2           3.9070    -1.0640     0.8570 f          1 F6A      -0.214967
      6 C3           2.0870    -0.1180    -1.2750 ca         1 F6A      -0.102600
      7 F3           3.9050     1.2110     0.6420 f          1 F6A      -0.214967
      8 C4           1.3920    -0.2320    -2.4800 ca         1 F6A      -0.110000
      9 C5           2.0880    -0.3420    -3.6660 ca         1 F6A      -0.111000
     10 C6           3.4720    -0.3410    -3.6630 ca         1 F6A      -0.110000
     11 C7           4.1670    -0.2240    -2.4720 ca         1 F6A      -0.092000
     12 C8           1.3480     0.0000     0.0000 c          1 F6A       0.665700
     13 C9          -0.6990     0.0000     1.2110 ca         1 F6A       0.056600
     14 C10         -1.9150     0.6590     1.3090 ca         1 F6A      -0.154000
     15 C11         -2.6080     0.6570     2.5170 cp         1 F6A      -0.018000
     16 C12         -2.0760    -0.0080     3.6200 ca         1 F6A      -0.134000
     17 C13         -0.8630    -0.6610     3.5150 ca         1 F6A      -0.109000
     18 C14         -0.1770    -0.6640     2.3140 ca         1 F6A      -0.123000
     19 C15         -3.9110     1.3590     2.6290 cp         1 F6A      -0.033000
     20 C16         -4.6050     1.3570     3.8380 ca         1 F6A      -0.118500
     21 C17         -5.8140     2.0130     3.9360 ca         1 F6A      -0.126500
     22 C18         -6.3390     2.6720     2.8390 ca         1 F6A      -0.127000
     23 C19         -5.6540     2.6770     1.6370 ca         1 F6A      -0.126500
     24 C20         -4.4410     2.0290     1.5280 ca         1 F6A      -0.118500
     25 HN          -0.5000    -0.0010    -0.8670 hn         1 F6A       0.324500
     26 H4           0.3090    -0.2330    -2.4850 ha         1 F6A       0.133000
     27 H5           1.5500    -0.4330    -4.6020 ha         1 F6A       0.140000
     28 H6           4.0130    -0.4260    -4.5970 ha         1 F6A       0.143000
     29 H7           5.2500    -0.2240    -2.4770 ha         1 F6A       0.158000
     30 H10         -2.3250     1.1740     0.4480 ha         1 F6A       0.132000
     31 H12         -2.6110    -0.0090     4.5620 ha         1 F6A       0.134000
     32 H13         -0.4510    -1.1780     4.3730 ha         1 F6A       0.137000
     33 H14          0.7730    -1.1770     2.2360 ha         1 F6A       0.163000
     34 H16         -4.1950     0.8410     4.6980 ha         1 F6A       0.132000
     35 H17         -6.3550     2.0120     4.8750 ha         1 F6A       0.129500
     36 H18         -7.2900     3.1830     2.9200 ha         1 F6A       0.129000
     37 H19         -6.0690     3.1960     0.7810 ha         1 F6A       0.129500
     38 H20         -3.9060     2.0330     0.5860 ha         1 F6A       0.132000
     39 C1           4.2410     0.0040     0.0180 c3         1 F6A       0.684200
@<TRIPOS>BOND
     1     1    12 1
     2     1    13 1
     3     2    12 2
     4    39     3 1
     5    39     4 1
     6    39     5 1
     7    39     7 1
     8     4     6 ar
     9     4    11 ar
    10     6     8 ar
    11     6    12 1
    12     8     9 ar
    13     9    10 ar
    14    10    11 ar
    15    13    14 ar
    16    13    18 ar
    17    14    15 ar
    18    15    16 ar
    19    15    19 1
    20    16    17 ar
    21    17    18 ar
    22    19    20 ar
    23    19    24 ar
    24    20    21 ar
    25    21    22 ar
    26    22    23 ar
    27    23    24 ar
    28     1    25 1
    29     8    26 1
    30     9    27 1
    31    10    28 1
    32    11    29 1
    33    14    30 1
    34    16    31 1
    35    17    32 1
    36    18    33 1
    37    20    34 1
    38    21    35 1
    39    22    36 1
    40    23    37 1
    41    24    38 1
@<TRIPOS>SUBSTRUCTURE
     1 F6A         1 TEMP              0 ****  ****    0 ROOT
