@<TRIPOS>MOLECULE
F6A
   39    41     1     0     0
SMALL
bcc


@<TRIPOS>ATOM
      1 N            0.0000     0.0000     0.0000 ns         1 F6A      -0.025100
      2 O            1.9560     0.0980     1.0480 o          1 F6A      -0.618100
      3 F1           5.6150    -0.0190    -0.2420 f          1 F6A      -0.205633
      4 C2           3.4830    -0.1180    -1.2790 ca         1 F6A      -0.143300
      5 F2           3.9070    -1.0640     0.8570 f          1 F6A      -0.205633
      6 C3           2.0870    -0.1180    -1.2750 ca         1 F6A      -0.098600
      7 F3           3.9050     1.2110     0.6420 f          1 F6A      -0.205633
      8 C4           1.3920    -0.2320    -2.4800 ca         1 F6A      -0.092000
      9 C5           2.0880    -0.3420    -3.6660 ca         1 F6A      -0.076000
     10 C6           3.4720    -0.3410    -3.6630 ca         1 F6A      -0.083000
     11 C7           4.1670    -0.2240    -2.4720 ca         1 F6A      -0.057000
     12 C8           1.3480     0.0000     0.0000 c          1 F6A       0.571700
     13 C9          -0.6990     0.0000     1.2110 ca         1 F6A      -0.090400
     14 C10         -1.9150     0.6590     1.3090 ca         1 F6A      -0.132000
     15 C11         -2.6080     0.6570     2.5170 cp         1 F6A      -0.013000
     16 C12         -2.0760    -0.0080     3.6200 ca         1 F6A      -0.111000
     17 C13         -0.8630    -0.6610     3.5150 ca         1 F6A      -0.077000
     18 C14         -0.1770    -0.6640     2.3140 ca         1 F6A      -0.099000
     19 C15         -3.9110     1.3590     2.6290 cp         1 F6A      -0.030000
     20 C16         -4.6050     1.3570     3.8380 ca         1 F6A      -0.100000
     21 C17         -5.8140     2.0130     3.9360 ca         1 F6A      -0.097500
     22 C18         -6.3390     2.6720     2.8390 ca         1 F6A      -0.101000
     23 C19         -5.6540     2.6770     1.6370 ca         1 F6A      -0.097500
     24 C20         -4.4410     2.0290     1.5280 ca         1 F6A      -0.100000
     25 HN          -0.5000    -0.0010    -0.8670 hn         1 F6A       0.170500
     26 H4           0.3090    -0.2330    -2.4850 ha         1 F6A       0.108000
     27 H5           1.5500    -0.4330    -4.6020 ha         1 F6A       0.109000
     28 H6           4.0130    -0.4260    -4.5970 ha         1 F6A       0.111000
     29 H7           5.2500    -0.2240    -2.4770 ha         1 F6A       0.127000
     30 H10         -2.3250     1.1740     0.4480 ha         1 F6A       0.113000
     31 H12         -2.6110    -0.0090     4.5620 ha         1 F6A       0.112000
     32 H13         -0.4510    -1.1780     4.3730 ha         1 F6A       0.106000
     33 H14          0.7730    -1.1770     2.2360 ha         1 F6A       0.142000
     34 H16         -4.1950     0.8410     4.6980 ha         1 F6A       0.110500
     35 H17         -6.3550     2.0120     4.8750 ha         1 F6A       0.101500
     36 H18         -7.2900     3.1830     2.9200 ha         1 F6A       0.102000
     37 H19         -6.0690     3.1960     0.7810 ha         1 F6A       0.101500
     38 H20         -3.9060     2.0330     0.5860 ha         1 F6A       0.110500
     39 C1           4.2410     0.0040     0.0180 c3         1 F6A       0.659200
@<TRIPOS>BOND
     1     1    12 1   
     2     1    13 1   
     3     1    25 1   
     4     2    12 2   
     5     3    39 1   
     6     4     6 ar  
     7     4    11 ar  
     8     4    39 1   
     9     5    39 1   
    10     6     8 ar  
    11     6    12 1   
    12     7    39 1   
    13     8     9 ar  
    14     8    26 1   
    15     9    10 ar  
    16     9    27 1   
    17    10    11 ar  
    18    10    28 1   
    19    11    29 1   
    20    13    14 ar  
    21    13    18 ar  
    22    14    15 ar  
    23    14    30 1   
    24    15    16 ar  
    25    15    19 1   
    26    16    17 ar  
    27    16    31 1   
    28    17    18 ar  
    29    17    32 1   
    30    18    33 1   
    31    19    20 ar  
    32    19    24 ar  
    33    20    21 ar  
    34    20    34 1   
    35    21    22 ar  
    36    21    35 1   
    37    22    23 ar  
    38    22    36 1   
    39    23    24 ar  
    40    23    37 1   
    41    24    38 1   
@<TRIPOS>SUBSTRUCTURE
     1 F6A         1 TEMP              0 ****  ****    0 ROOT
