@<TRIPOS>MOLECULE
molecule
   35    36     1     0     0
SMALL
bcc


@<TRIPOS>ATOM
      1 C01          0.0000     0.0000     0.0000 ca         1 F6B      -0.096500
      2 C02          1.3800     0.0000     0.0000 ca         1 F6B      -0.035000
      3 C03          2.0740     0.0000     1.1970 ca         1 F6B      -0.332500
      4 C04          1.3920    -0.0010     2.4010 ca         1 F6B      -0.035000
      5 C05          0.0110    -0.0010     2.4140 ca         1 F6B      -0.096500
      6 C06         -0.6940     0.0000     1.2110 ca         1 F6B      -0.035600
      7 C07         -2.1740     0.0020     1.2180 c          1 F6B       0.651700
      8 O08         -2.7860     0.0020     0.1680 o          1 F6B      -0.568100
      9 N09         -2.8420     0.0010     2.3890 ns         1 F6B      -0.564900
     10 C10         -4.3070     0.0020     2.3960 c3         1 F6B       0.167300
     11 S11          3.8360    -0.0010     1.1880 sy         1 F6B       1.225200
     12 NP2          4.3270     1.5800     1.1850 nz         1 F6B      -0.807500
     13 O13          4.2430    -0.5460     2.4360 o          1 F6B      -0.515300
     14 O14          4.2310    -0.5460    -0.0640 o          1 F6B      -0.515300
     15 C15         -4.8020     0.0020     3.8190 ca         1 F6B      -0.216300
     16 C16         -5.0290     1.2000     4.4730 ca         1 F6B       0.174400
     17 C17         -5.4840     1.1990     5.7810 ca         1 F6B      -0.181000
     18 C18         -5.7110     0.0010     6.4330 ca         1 F6B      -0.060000
     19 C19         -5.4850    -1.1950     5.7800 ca         1 F6B      -0.181000
     20 C20         -5.0360    -1.1960     4.4710 ca         1 F6B       0.174400
     21 F21         -4.8060     2.3710     3.8360 f          1 F6B      -0.127900
     22 F22         -4.8200    -2.3670     3.8310 f          1 F6B      -0.127900
     23 H01C        -0.5430     0.0010    -0.9370 ha         1 F6B       0.176000
     24 H02C         1.9200     0.0000    -0.9390 ha         1 F6B       0.159000
     25 H04C         1.9420    -0.0010     3.3340 ha         1 F6B       0.159000
     26 H05C        -0.5220    -0.0010     3.3570 ha         1 F6B       0.176000
     27 H09N        -2.3370    -0.0230     3.2530 hn         1 F6B       0.316500
     28 H101        -4.6700     0.8880     1.8870 h1         1 F6B       0.080700
     29 H102        -4.6710    -0.8810     1.8860 h1         1 F6B       0.080700
     30 HNP1         3.9710     2.0390     0.3700 hn         1 F6B       0.492467
     31 HNP2         3.9810     2.0380     2.0050 hn         1 F6B       0.492467
     32 H17C        -5.6610     2.1370     6.2930 ha         1 F6B       0.160000
     33 H18C        -6.0650     0.0000     7.4560 ha         1 F6B       0.155000
     34 H19C        -5.6660    -2.1330     6.2910 ha         1 F6B       0.160000
     35 HP23         5.3270     1.6190     1.1720 hn         1 F6B       0.492467
@<TRIPOS>BOND
     1     1     2 ar
     2     1     6 ar
     3     1    23 1
     4     2     3 ar
     5     2    24 1
     6     3     4 ar
     7     3    11 1
     8     4     5 ar
     9     4    25 1
    10     5     6 ar
    11     5    26 1
    12     6     7 1
    13     7     8 2
    14     7     9 1
    15     9    10 1
    16     9    27 1
    17    10    15 1
    18    10    28 1
    19    10    29 1
    20    11    12 1
    21    11    13 2
    22    11    14 2
    23    12    30 1
    24    12    31 1
    25    15    16 ar
    26    15    20 ar
    27    16    17 ar
    28    16    21 1
    29    17    18 ar
    30    17    32 1
    31    18    19 ar
    32    18    33 1
    33    19    20 ar
    34    19    34 1
    35    20    22 1
    36    35    12 1
@<TRIPOS>SUBSTRUCTURE
     1 F6B         1 TEMP              0 ****  ****    0 ROOT
