@<TRIPOS>MOLECULE
molecule
   60    63     1     0     0
SMALL
bcc


@<TRIPOS>ATOM
      1 C1           0.0000     0.0000     0.0000 ca         1 F6D       0.183100
      2 C2           1.3880     0.0000     0.0000 ca         1 F6D      -0.192000
      3 C3           2.0780     0.0000     1.1970 ca         1 F6D      -0.043000
      4 C11         -4.9320    -4.9900     0.8680 cc         1 F6D       0.534600
      5 C12         -4.2210    -6.3020     0.6580 c3         1 F6D      -0.147400
      6 C13         -6.9040    -3.8200     1.1740 cd         1 F6D       0.528500
      7 C14         -8.3600    -2.2330     1.4810 cd         1 F6D       0.838200
      8 C15        -10.8240    -2.3720     1.6830 c3         1 F6D       0.368800
      9 C16        -11.3150    -2.5900     0.2510 c3         1 F6D      -0.162300
     10 C17        -10.3450    -3.4210    -0.4790 c1         1 F6D       0.224700
     11 C18        -11.8720    -1.6250     2.4670 ca         1 F6D      -0.116300
     12 C19        -11.9920    -0.2540     2.3300 ca         1 F6D      -0.114000
     13 C20        -12.9540     0.4320     3.0480 ca         1 F6D      -0.115000
     14 C21        -13.7970    -0.2530     3.9040 ca         1 F6D      -0.106000
     15 C22        -13.6780    -1.6250     4.0400 ca         1 F6D       0.033400
     16 C23        -12.7190    -2.3110     3.3170 ca         1 F6D      -0.110000
     17 Cl         -14.7370    -2.4850     5.1140 cl         1 F6D      -0.085400
     18 N5          -9.5900    -4.0460    -1.0530 n1         1 F6D      -0.362800
     19 N4          -9.5840    -1.5910     1.6610 nu         1 F6D      -0.852200
     20 N3          -8.1970    -3.5450     1.3200 nc         1 F6D      -0.475300
     21 N6          -7.1880    -1.6370     1.4450 nc         1 F6D      -0.719100
     22 N7          -6.2260    -2.6360     1.2460 na         1 F6D      -0.018800
     23 N2          -6.2430    -4.9680     0.9870 nd         1 F6D      -0.686000
     24 C10         -4.1980    -3.8100     0.9410 cd         1 F6D      -0.409300
     25 C9          -4.8670    -2.6160     1.1340 cc         1 F6D       0.317300
     26 C8          -2.7140    -1.4220     1.0870 c3         1 F6D       0.221800
     27 C7          -2.1980     0.0140     1.2070 c3         1 F6D       0.154800
     28 N           -2.6820     0.6050     2.4610 nz         1 F6D      -0.873600
     29 C6          -0.6910     0.0070     1.2030 ca         1 F6D      -0.214300
     30 O           -0.6800     0.0000    -1.1760 os         1 F6D      -0.343900
     31 C            0.0970    -0.0010    -2.3760 c3         1 F6D       0.124700
     32 C5           0.0030     0.0070     2.3970 ca         1 F6D      -0.111000
     33 C4           1.3860     0.0010     2.3940 ca         1 F6D      -0.136000
     34 H1           1.9300     0.0440    -0.9370 ha         1 F6D       0.166000
     35 H2           3.1600    -0.0170     1.2370 ha         1 F6D       0.163000
     36 H3          -3.5900    -6.5110     1.5130 hc         1 F6D       0.068367
     37 H4          -3.6120    -6.2430    -0.2350 hc         1 F6D       0.068367
     38 H5          -4.9510    -7.0940     0.5460 hc         1 F6D       0.068367
     39 H6         -10.6380    -3.3310     2.1510 h1         1 F6D       0.076700
     40 H7         -11.2310    -3.4280     0.9320 hc         1 F6D       0.120200
     41 H8         -12.3670    -2.6030    -0.0080 hc         1 F6D       0.120200
     42 H9         -11.3500     0.2790     1.6400 ha         1 F6D       0.136000
     43 H10        -13.0490     1.5050     2.9370 ha         1 F6D       0.145000
     44 H11        -14.5730     0.2790     4.4410 ha         1 F6D       0.154000
     45 H12        -12.6190    -3.3830     3.4310 ha         1 F6D       0.150000
     46 H13         -9.6140    -0.6000     1.7950 hn         1 F6D       0.461800
     47 H14         -3.1190    -3.8480     1.0370 ha         1 F6D       0.152000
     48 H15         -4.6710    -0.5640     1.3110 hn         1 F6D       0.444800
     49 H16         -2.4320    -1.8280     0.1230 h1         1 F6D       0.093200
     50 H17         -2.2830    -2.0280     1.8750 h1         1 F6D       0.093200
     51 H18         -2.5580     0.5980     0.3690 hx         1 F6D       0.128700
     52 H19         -3.0420     1.1800     1.7250 hn         1 F6D       0.482133
     53 H20         -1.9730     1.0380     3.0190 hn         1 F6D       0.482133
     54 H22          0.7140     0.8880    -2.4070 h1         1 F6D       0.060700
     55 H23          0.7290    -0.8810    -2.3950 h1         1 F6D       0.060700
     56 H24         -0.5640    -0.0130    -3.2340 h1         1 F6D       0.060700
     57 H25         -0.5360    -0.0150     3.3360 ha         1 F6D       0.117000
     58 H26          1.9290    -0.0030     3.3310 ha         1 F6D       0.160000
     59 N1          -4.1740    -1.4270     1.2100 nu         1 F6D      -0.849600
     60 HN3         -3.3770     0.0640     2.9370 hn         1 F6D       0.482133
@<TRIPOS>BOND
     1    33     3 ar
     2    33    32 ar
     3     3     2 ar
     4    32    29 ar
     5     2     1 ar
     6    29     1 ar
     7    29    27 1
     8    26    27 1
     9    26    59 1
    10     1    30 1
    11    27    28 1
    12    59    25 1
    13    30    31 1
    14    25    24 2
    15    25    22 1
    16    18    10 3
    17    24     4 1
    18    21    22 1
    19    21     7 2
    20    10     9 1
    21    22     6 1
    22    12    13 ar
    23    12    11 ar
    24     8     9 1
    25     8    11 1
    26     8    19 1
    27    13    14 ar
    28     7    19 1
    29     7    20 1
    30     4     5 1
    31     4    23 2
    32    11    16 ar
    33     6    23 1
    34     6    20 2
    35    14    15 ar
    36    16    15 ar
    37    15    17 1
    38     2    34 1
    39     3    35 1
    40     5    36 1
    41     5    37 1
    42     5    38 1
    43     8    39 1
    44     9    40 1
    45     9    41 1
    46    12    42 1
    47    13    43 1
    48    14    44 1
    49    16    45 1
    50    19    46 1
    51    24    47 1
    52    59    48 1
    53    26    49 1
    54    26    50 1
    55    27    51 1
    56    28    52 1
    57    28    53 1
    58    31    54 1
    59    31    55 1
    60    31    56 1
    61    32    57 1
    62    33    58 1
    63    60    28 1
@<TRIPOS>SUBSTRUCTURE
     1 F6D         1 TEMP              0 ****  ****    0 ROOT
