@<TRIPOS>MOLECULE
F6D
   60    63     1     0     0
SMALL
bcc


@<TRIPOS>ATOM
      1 C1           0.0000     0.0000     0.0000 ca         1 F6D       0.204100
      2 C2           1.3880     0.0000     0.0000 ca         1 F6D      -0.175000
      3 C3           2.0780     0.0000     1.1970 ca         1 F6D      -0.003000
      4 C11         -4.9320    -4.9900     0.8680 cc         1 F6D       0.457600
      5 C12         -4.2210    -6.3020     0.6580 c3         1 F6D      -0.045400
      6 C13         -6.9040    -3.8200     1.1740 cd         1 F6D       0.304500
      7 C14         -8.3600    -2.2330     1.4810 cc         1 F6D       0.707200
      8 C15        -10.8240    -2.3720     1.6830 c3         1 F6D       0.286800
      9 C16        -11.3150    -2.5900     0.2510 c3         1 F6D      -0.080300
     10 C17        -10.3450    -3.4210    -0.4790 c1         1 F6D       0.213700
     11 C18        -11.8720    -1.6250     2.4670 ca         1 F6D      -0.133300
     12 C19        -11.9920    -0.2540     2.3300 ca         1 F6D      -0.090000
     13 C20        -12.9540     0.4320     3.0480 ca         1 F6D      -0.083000
     14 C21        -13.7970    -0.2530     3.9040 ca         1 F6D      -0.080000
     15 C22        -13.6780    -1.6250     4.0400 ca         1 F6D      -0.035600
     16 C23        -12.7190    -2.3110     3.3170 ca         1 F6D      -0.082000
     17 Cl         -14.7370    -2.4850     5.1140 cl         1 F6D       0.002600
     18 N5          -9.5900    -4.0460    -1.0530 n1         1 F6D      -0.384800
     19 N4          -9.5840    -1.5910     1.6610 nu         1 F6D      -0.445200
     20 N3          -8.1970    -3.5450     1.3200 nc         1 F6D      -0.427300
     21 N6          -7.1880    -1.6370     1.4450 nd         1 F6D      -0.886100
     22 N7          -6.2260    -2.6360     1.2460 na         1 F6D       0.458200
     23 N2          -6.2430    -4.9680     0.9870 nd         1 F6D      -0.548000
     24 C10         -4.1980    -3.8100     0.9410 cc         1 F6D      -0.361300
     25 C9          -4.8670    -2.6160     1.1340 cd         1 F6D      -0.005700
     26 C8          -2.7140    -1.4220     1.0870 c3         1 F6D       0.151800
     27 C7          -2.1980     0.0140     1.2070 c3         1 F6D       0.035800
     28 N           -2.6820     0.6050     2.4610 nz         1 F6D      -0.066600
     29 C6          -0.6910     0.0070     1.2030 ca         1 F6D      -0.238300
     30 O           -0.6800     0.0000    -1.1760 os         1 F6D      -0.322900
     31 C            0.0970    -0.0010    -2.3760 c3         1 F6D       0.249700
     32 C5           0.0030     0.0070     2.3970 ca         1 F6D      -0.087000
     33 C4           1.3860     0.0010     2.3940 ca         1 F6D      -0.105000
     34 H1           1.9300     0.0440    -0.9370 ha         1 F6D       0.143000
     35 H2           3.1600    -0.0170     1.2370 ha         1 F6D       0.125000
     36 H3          -3.5900    -6.5110     1.5130 hc         1 F6D       0.025367
     37 H4          -3.6120    -6.2430    -0.2350 hc         1 F6D       0.025367
     38 H5          -4.9510    -7.0940     0.5460 hc         1 F6D       0.025367
     39 H6         -10.6380    -3.3310     2.1510 h1         1 F6D       0.050700
     40 H7         -11.2310    -3.4280     0.9320 hc         1 F6D       0.088700
     41 H8         -12.3670    -2.6030    -0.0080 hc         1 F6D       0.088700
     42 H9         -11.3500     0.2790     1.6400 ha         1 F6D       0.111000
     43 H10        -13.0490     1.5050     2.9370 ha         1 F6D       0.112000
     44 H11        -14.5730     0.2790     4.4410 ha         1 F6D       0.122000
     45 H12        -12.6190    -3.3830     3.4310 ha         1 F6D       0.121000
     46 H13         -9.6140    -0.6000     1.7950 hn         1 F6D       0.310800
     47 H14         -3.1190    -3.8480     1.0370 ha         1 F6D       0.137000
     48 H15         -4.6710    -0.5640     1.3110 hn         1 F6D       0.298800
     49 H16         -2.4320    -1.8280     0.1230 h1         1 F6D       0.059200
     50 H17         -2.2830    -2.0280     1.8750 h1         1 F6D       0.059200
     51 H18         -2.5580     0.5980     0.3690 hx         1 F6D       0.101700
     52 H19         -3.0420     1.1800     1.7250 hn         1 F6D       0.267133
     53 H20         -1.9730     1.0380     3.0190 hn         1 F6D       0.267133
     54 H22          0.7140     0.8880    -2.4070 h1         1 F6D       0.012700
     55 H23          0.7290    -0.8810    -2.3950 h1         1 F6D       0.012700
     56 H24         -0.5640    -0.0130    -3.2340 h1         1 F6D       0.012700
     57 H25         -0.5360    -0.0150     3.3360 ha         1 F6D       0.087000
     58 H26          1.9290    -0.0030     3.3310 ha         1 F6D       0.127000
     59 N1          -4.1740    -1.4270     1.2100 nu         1 F6D      -0.448600
     60 HN3         -3.3770     0.0640     2.9370 hn         1 F6D       0.267133
@<TRIPOS>BOND
     1     1     2 ar  
     2     1    29 ar  
     3     1    30 1   
     4     2     3 ar  
     5     2    34 1   
     6     3    33 ar  
     7     3    35 1   
     8     4     5 1   
     9     4    23 2   
    10     4    24 1   
    11     5    36 1   
    12     5    37 1   
    13     5    38 1   
    14     6    20 2   
    15     6    22 1   
    16     6    23 1   
    17     7    19 1   
    18     7    20 1   
    19     7    21 2   
    20     8     9 1   
    21     8    11 1   
    22     8    19 1   
    23     8    39 1   
    24     9    10 1   
    25     9    40 1   
    26     9    41 1   
    27    10    18 3   
    28    11    12 ar  
    29    11    16 ar  
    30    12    13 ar  
    31    12    42 1   
    32    13    14 ar  
    33    13    43 1   
    34    14    15 ar  
    35    14    44 1   
    36    15    16 ar  
    37    15    17 1   
    38    16    45 1   
    39    19    46 1   
    40    21    22 1   
    41    22    25 1   
    42    24    25 2   
    43    24    47 1   
    44    25    59 1   
    45    26    27 1   
    46    26    49 1   
    47    26    50 1   
    48    26    59 1   
    49    27    28 1   
    50    27    29 1   
    51    27    51 1   
    52    28    52 1   
    53    28    53 1   
    54    28    60 1   
    55    29    32 ar  
    56    30    31 1   
    57    31    54 1   
    58    31    55 1   
    59    31    56 1   
    60    32    33 ar  
    61    32    57 1   
    62    33    58 1   
    63    48    59 1   
@<TRIPOS>SUBSTRUCTURE
     1 F6D         1 TEMP              0 ****  ****    0 ROOT
