@<TRIPOS>MOLECULE
molecule
   59    62     1     0     0
SMALL
bcc


@<TRIPOS>ATOM
      1 N1           0.0000     0.0000     0.0000 n          1 F6E      -0.471800
      2 C2           1.4600     0.0000     0.0000 c3         1 F6E       0.038000
      3 N3           0.6370     4.1900    -1.7970 na         1 F6E      -0.291900
      4 C4          -0.5260    -1.2270     2.0500 c3         1 F6E      -0.154700
      5 C5          -0.4300     0.1670     2.6740 c3         1 F6E      -0.046100
      6 C6          -1.7980     0.6130     3.1220 ca         1 F6E      -0.091300
      7 C9          -4.3160     1.4220     3.9370 cp         1 F6E      -0.040000
      8 C11         -6.4610     2.6280     3.5300 ca         1 F6E      -0.120500
      9 C12         -7.7160     3.0290     3.9420 ca         1 F6E      -0.127000
     10 C13         -8.1830     2.6720     5.1940 ca         1 F6E      -0.130000
     11 C14         -7.3950     1.9110     6.0400 ca         1 F6E      -0.127000
     12 C15         -6.1380     1.5050     5.6380 ca         1 F6E      -0.120500
     13 C16         -3.8390     1.7840     2.6790 ca         1 F6E      -0.118500
     14 C24          5.0340    -2.6200     3.7720 c3         1 F6E      -0.091100
     15 O1          -1.8570     1.0260    -0.6580 o          1 F6E      -0.620100
     16 C18         -0.6490     1.0580    -0.5260 c          1 F6E       0.603600
     17 C19          0.1070     2.2530    -0.9410 cc         1 F6E       0.246800
     18 C21         -0.3900     3.3240    -1.6230 cd         1 F6E      -0.185600
     19 C20          1.7410     3.6410    -1.2290 cd         1 F6E       0.398400
     20 N2           1.4270     2.4840    -0.7220 nc         1 F6E      -0.695000
     21 C1           1.9780     0.0000     1.4410 c3         1 F6E       0.062000
     22 N            1.9480    -1.3750     1.9560 n          1 F6E      -0.488800
     23 C22          3.2010    -2.1060     2.1510 c3         1 F6E       0.106000
     24 C23          3.7220    -1.8560     3.5680 c3         1 F6E      -0.105400
     25 C3          -0.7860    -1.1060     0.5450 c3         1 F6E       0.109000
     26 C            0.7850    -1.9660     2.2500 c          1 F6E       0.696500
     27 O            0.7770    -3.1000     2.6800 o          1 F6E      -0.650500
     28 C17         -2.5830     1.3780     2.2780 ca         1 F6E      -0.121500
     29 C8          -3.5190     0.6560     4.7850 ca         1 F6E      -0.118500
     30 C7          -2.2660     0.2510     4.3710 ca         1 F6E      -0.121500
     31 C10         -5.6640     1.8620     4.3780 cp         1 F6E      -0.031000
     32 H1           1.8190     0.8860    -0.5100 h1         1 F6E       0.093200
     33 H2           1.8190    -0.8860    -0.5100 h1         1 F6E       0.093200
     34 H3           0.5900     5.0750    -2.2620 hn         1 F6E       0.307700
     35 H4          -1.3310    -1.7840     2.5140 hc         1 F6E       0.101700
     36 H5          -0.0440     0.8650     1.9410 hc         1 F6E       0.065200
     37 H6           0.2370     0.1350     3.5280 hc         1 F6E       0.065200
     38 H7          -6.0960     2.9090     2.5490 ha         1 F6E       0.133500
     39 H8          -8.3360     3.6250     3.2830 ha         1 F6E       0.128500
     40 H9          -9.1680     2.9880     5.5130 ha         1 F6E       0.127000
     41 H10         -7.7650     1.6340     7.0200 ha         1 F6E       0.128500
     42 H11         -5.5220     0.9100     6.3020 ha         1 F6E       0.133500
     43 H12         -4.4540     2.3820     2.0170 ha         1 F6E       0.133000
     44 H13          5.4000    -2.4470     4.7770 hc         1 F6E       0.034367
     45 H14          4.8600    -3.6800     3.6290 hc         1 F6E       0.034367
     46 H15          5.7680    -2.2740     3.0560 hc         1 F6E       0.034367
     47 H16         -1.4110     3.4590    -1.9580 h4         1 F6E       0.199000
     48 H17          2.7260     4.0920    -1.2040 h5         1 F6E       0.070100
     49 H19          2.9960     0.3710     1.4610 h1         1 F6E       0.071200
     50 H20          1.3440     0.6300     2.0540 h1         1 F6E       0.071200
     51 H21          3.9350    -1.7630     1.4320 h1         1 F6E       0.057700
     52 H22          3.0270    -3.1660     2.0120 h1         1 F6E       0.057700
     53 H23          3.8970    -0.7960     3.7080 hc         1 F6E       0.048200
     54 H24          2.9890    -2.1990     4.2880 hc         1 F6E       0.048200
     55 H25         -1.8390    -0.9160     0.3760 h1         1 F6E       0.075700
     56 H26         -0.4970    -2.0280     0.0550 h1         1 F6E       0.075700
     57 H27         -2.2100     1.6590     1.3000 ha         1 F6E       0.142500
     58 H28         -3.8860     0.3720     5.7640 ha         1 F6E       0.133000
     59 H29         -1.6460    -0.3450     5.0300 ha         1 F6E       0.142500
@<TRIPOS>BOND
     1    10    11 ar
     2    10     9 ar
     3    11    12 ar
     4     9     8 ar
     5    12    31 ar
     6     8    31 ar
     7    31     7 1
     8    13     7 ar
     9    13    28 ar
    10     7    29 ar
    11    28     6 ar
    12    29    30 ar
    13    21     2 1
    14    21    22 1
    15     2     1 1
    16     6    30 ar
    17     6     5 1
    18    22    26 1
    19    22    23 1
    20     4    26 1
    21     4     5 1
    22     4    25 1
    23    20    19 2
    24    20    17 1
    25    19     3 1
    26    26    27 2
    27    23    24 1
    28     1    25 1
    29     1    16 1
    30    17    16 1
    31    17    18 2
    32     3    18 1
    33    24    14 1
    34    16    15 2
    35     2    32 1
    36     2    33 1
    37     3    34 1
    38     4    35 1
    39     5    36 1
    40     5    37 1
    41     8    38 1
    42     9    39 1
    43    10    40 1
    44    11    41 1
    45    12    42 1
    46    13    43 1
    47    14    44 1
    48    14    45 1
    49    14    46 1
    50    18    47 1
    51    19    48 1
    52    21    49 1
    53    21    50 1
    54    23    51 1
    55    23    52 1
    56    24    53 1
    57    24    54 1
    58    25    55 1
    59    25    56 1
    60    28    57 1
    61    29    58 1
    62    30    59 1
@<TRIPOS>SUBSTRUCTURE
     1 F6E         1 TEMP              0 ****  ****    0 ROOT
