@<TRIPOS>MOLECULE
F6F
   30    30     1     0     0
SMALL
bcc


@<TRIPOS>ATOM
      1 C1           0.0000     0.0000     0.0000 ca         1 F6F       0.089100
      2 C2           1.3900     0.0000     0.0000 ca         1 F6F      -0.189000
      3 C3           2.0800     0.0000     1.1920 ca         1 F6F      -0.023500
      4 C4           1.3800    -0.0110     2.4020 ca         1 F6F      -0.140600
      5 C5          -0.0170    -0.0110     2.3970 ca         1 F6F      -0.023500
      6 C6          -0.6990    -0.0060     1.2010 ca         1 F6F      -0.189000
      7 O7          -0.6770     0.0040    -1.1770 os         1 F6F      -0.298900
      8 C8           0.3040     0.0100    -2.2170 c3         1 F6F       0.747700
      9 F9           1.1040    -1.1330    -2.1090 f          1 F6F      -0.198967
     10 F10         -0.3360     0.0150    -3.4610 f          1 F6F      -0.198967
     11 F11          1.1040     1.1510    -2.0980 f          1 F6F      -0.198967
     12 C12          2.1160    -0.0170     3.6820 c          1 F6F       0.549700
     13 N13          3.4630    -0.0170     3.6840 ns         1 F6F      -0.098900
     14 O14          1.5060    -0.0220     4.7330 o          1 F6F      -0.715100
     15 C15          4.1940    -0.0220     4.9540 c3         1 F6F       0.006000
     16 C16          5.6980    -0.0210     4.6780 c3         1 F6F       0.214400
     17 O17          6.0640     1.2030     4.0370 os         1 F6F      -0.462200
     18 P18          7.6510     1.1360     3.7770 p5         1 F6F       0.661900
     19 O19          8.1560     2.5410     3.1740 o          1 F6F      -0.759167
     20 O20          8.3490     0.8680     5.0550 o          1 F6F      -0.759167
     21 O21          7.9750    -0.0440     2.7310 o          1 F6F      -0.759167
     22 H2           1.9310     0.0010    -0.9380 ha         1 F6F       0.126000
     23 H3           3.1610     0.0600     1.1920 ha         1 F6F       0.133500
     24 H5          -0.5620    -0.0590     3.3310 ha         1 F6F       0.133500
     25 H6          -1.7830    -0.0060     1.1960 ha         1 F6F       0.126000
     26 H13          3.9650    -0.0330     2.8190 hn         1 F6F       0.196500
     27 H151         3.9320     0.8600     5.5260 h1         1 F6F       0.005700
     28 H152         3.9310    -0.9090     5.5180 h1         1 F6F       0.005700
     29 H161         6.2370    -0.1140     5.6130 h1         1 F6F       0.010200
     30 H162         5.9480    -0.8550     4.0330 h1         1 F6F       0.010200
@<TRIPOS>BOND
     1     1     2 ar  
     2     1     6 ar  
     3     1     7 1   
     4     2     3 ar  
     5     2    22 1   
     6     3     4 ar  
     7     3    23 1   
     8     4     5 ar  
     9     4    12 1   
    10     5     6 ar  
    11     5    24 1   
    12     6    25 1   
    13     7     8 1   
    14     8     9 1   
    15     8    10 1   
    16     8    11 1   
    17    12    13 1   
    18    12    14 2   
    19    13    15 1   
    20    13    26 1   
    21    15    16 1   
    22    15    27 1   
    23    15    28 1   
    24    16    17 1   
    25    16    29 1   
    26    16    30 1   
    27    17    18 1   
    28    18    19 1   
    29    18    20 1   
    30    18    21 1   
@<TRIPOS>SUBSTRUCTURE
     1 F6F         1 TEMP              0 ****  ****    0 ROOT
