@<TRIPOS>MOLECULE
molecule
   49    52     1     0     0
SMALL
bcc


@<TRIPOS>ATOM
      1 C1           0.0000     0.0000     0.0000 c3         1 F6J      -0.087100
      2 N2           9.2510    -4.6610     1.8240 nb         1 F6J      -0.727000
      3 C5           3.5390    -1.1760    -0.8550 ca         1 F6J      -0.057300
      4 C6           4.3370    -1.8340     0.0360 ca         1 F6J      -0.139000
      5 C7           5.7260    -1.7700    -0.0910 ca         1 F6J      -0.065800
      6 C9           5.5040    -0.3750    -2.0220 ca         1 F6J      -0.096000
      7 C10          4.1130    -0.4380    -1.8960 ca         1 F6J      -0.097600
      8 C11          3.2520     0.2730    -2.8580 c          1 F6J       0.881200
      9 C12          6.5900    -2.4830     0.8750 cc         1 F6J      -0.048400
     10 C13          6.5110    -2.4310     2.2290 cd         1 F6J      -0.111100
     11 C15          9.8140    -5.1110     0.7250 ca         1 F6J       0.450200
     12 C16          9.3560    -4.7250    -0.5370 cp         1 F6J      -0.212300
     13 C18          7.7060    -3.3890     0.5570 ca         1 F6J      -0.205100
     14 C19         10.0080    -5.2450    -1.7660 cp         1 F6J      -0.010000
     15 C23         11.6870    -6.6040    -2.8120 ca         1 F6J      -0.126000
     16 C24         11.0850    -6.1240    -1.6670 ca         1 F6J      -0.127000
     17 C2           1.5300     0.0000     0.0000 c3         1 F6J      -0.055700
     18 C3           2.0400     0.0000     1.4430 c3         1 F6J      -0.087100
     19 C4           2.0390    -1.2490    -0.7210 c3         1 F6J      -0.024100
     20 C8           6.3010    -1.0340    -1.1300 ca         1 F6J      -0.150000
     21 O1           2.0490     0.3040    -2.6900 o          1 F6J      -0.835800
     22 O2           3.7990     0.8870    -3.9260 o          1 F6J      -0.835800
     23 N1           7.4750    -3.2220     2.7790 na         1 F6J      -0.281100
     24 C14          8.2220    -3.8220     1.7930 ca         1 F6J       0.459800
     25 C17          8.2780    -3.8450    -0.6270 ca         1 F6J      -0.022000
     26 C20          9.5410    -4.8600    -3.0210 ca         1 F6J      -0.127000
     27 C21         10.1500    -5.3470    -4.1600 ca         1 F6J      -0.126000
     28 C22         11.2220    -6.2150    -4.0560 ca         1 F6J      -0.141000
     29 H1          -0.3610    -0.8610     0.5500 hc         1 F6J       0.021700
     30 H2          -0.3610    -0.0460    -1.0200 hc         1 F6J       0.021700
     31 H3          -0.3610     0.9070     0.4700 hc         1 F6J       0.021700
     32 H4           3.8930    -2.4050     0.8420 ha         1 F6J       0.112000
     33 H5           5.9500     0.1960    -2.8280 ha         1 F6J       0.155000
     34 H6           5.7900    -1.8470     2.7890 h4         1 F6J       0.176000
     35 H7          10.6510    -5.7950     0.8000 h4         1 F6J       0.017100
     36 H8          12.5260    -7.2850    -2.7370 ha         1 F6J       0.126000
     37 H9          11.4490    -6.4290    -0.6930 ha         1 F6J       0.135500
     38 H10          1.8910     0.8850    -0.5110 hc         1 F6J       0.092700
     39 H11          1.9440    -0.9950     1.8590 hc         1 F6J       0.021700
     40 H12          3.0810     0.2990     1.4580 hc         1 F6J       0.021700
     41 H13          1.4550     0.6960     2.0320 hc         1 F6J       0.021700
     42 H14          1.5910    -1.3060    -1.7060 hc         1 F6J       0.055700
     43 H15          1.7710    -2.1300    -0.1510 hc         1 F6J       0.055700
     44 H16          7.3790    -0.9860    -1.2280 ha         1 F6J       0.111000
     45 H18          7.6190    -3.3480     3.7610 hn         1 F6J       0.294700
     46 H19          7.8980    -3.5260    -1.5900 ha         1 F6J       0.155000
     47 H20          8.7010    -4.1810    -3.1030 ha         1 F6J       0.135500
     48 H21          9.7900    -5.0470    -5.1360 ha         1 F6J       0.126000
     49 H22         11.6980    -6.5940    -4.9520 ha         1 F6J       0.121000
@<TRIPOS>BOND
     1    28    15 ar
     2    28    27 ar
     3    15    16 ar
     4     1    17 1
     5    27    26 ar
     6    18    17 1
     7    21     8 1
     8    16    14 ar
     9    17    19 1
    10    26    14 ar
    11    14    12 1
    12    19     3 1
    13     8     7 1
    14     8    22 1
    15     3     7 ar
    16     3     4 ar
    17     7     6 ar
    18    12    25 ar
    19    12    11 ar
    20    25    13 ar
    21     4     5 ar
    22     6    20 ar
    23     5    20 ar
    24     5     9 1
    25    11     2 ar
    26    13     9 1
    27    13    24 ar
    28     9    10 2
    29     2    24 ar
    30    24    23 1
    31    10    23 1
    32     1    29 1
    33     1    30 1
    34     1    31 1
    35     4    32 1
    36     6    33 1
    37    10    34 1
    38    11    35 1
    39    15    36 1
    40    16    37 1
    41    17    38 1
    42    18    39 1
    43    18    40 1
    44    18    41 1
    45    19    42 1
    46    19    43 1
    47    20    44 1
    48    23    45 1
    49    25    46 1
    50    26    47 1
    51    27    48 1
    52    28    49 1
@<TRIPOS>SUBSTRUCTURE
     1 F6J         1 TEMP              0 ****  ****    0 ROOT
