@<TRIPOS>MOLECULE
F6K
   46    47     1     0     0
SMALL
bcc


@<TRIPOS>ATOM
      1 C4           0.0000     0.0000     0.0000 c3         1 F6K       0.185800
      2 C6          -0.5470     0.8490    -1.1500 c3         1 F6K      -0.052100
      3 C7           1.5450     0.0000     0.0000 c3         1 F6K      -0.153600
      4 C8           2.0750     1.2540    -0.6980 c3         1 F6K       0.190100
      5 C10          3.9790     1.6200     0.8370 c2         1 F6K      -0.195200
      6 C13          5.6370     2.5770    -1.2080 c3         1 F6K      -0.022400
      7 C21         -3.0970     0.0380     3.9580 c3         1 F6K       0.092000
      8 Cl          -3.4610     0.8400     5.5320 cl         1 F6K      -0.151400
      9 C2          -1.5520     0.0040     1.9940 c3         1 F6K       0.003600
     10 C3          -0.3150     0.6510     1.3670 c3         1 F6K      -0.141700
     11 O5          -0.5120    -1.3320    -0.0630 oh         1 F6K      -0.583800
     12 C19          0.9130     0.3670     2.2040 c          1 F6K       0.644500
     13 O20          0.9650     0.4570     3.4130 o          1 F6K      -0.662500
     14 N18          1.9360     0.0000     1.4140 ns         1 F6K      -0.187900
     15 C16          2.0660    -1.2370    -0.6860 c          1 F6K       0.660900
     16 O17          2.7660    -1.1350    -1.6650 o          1 F6K      -0.544100
     17 O15          1.5150     2.4150    -0.0810 oh         1 F6K      -0.582800
     18 C9           3.5990     1.2990    -0.5790 c3         1 F6K      -0.041500
     19 C14          4.1520     2.3660    -1.5270 c3         1 F6K      -0.019400
     20 C12          5.7520     3.2090     0.1800 c3         1 F6K       0.020800
     21 C11          4.9160     2.4490     1.1670 c2         1 F6K      -0.132200
     22 H1          -0.0200     0.6020    -2.0640 hc         1 F6K       0.026033
     23 H2          -1.6040     0.6480    -1.2770 hc         1 F6K       0.026033
     24 H3          -0.4040     1.8990    -0.9230 hc         1 F6K       0.026033
     25 H4           1.7950     1.2310    -1.7440 h1         1 F6K       0.027700
     26 H5           3.4350     1.1250     1.6330 ha         1 F6K       0.124000
     27 H6           6.1490     1.6220    -1.2150 hc         1 F6K       0.016200
     28 H7           6.0760     3.2380    -1.9450 hc         1 F6K       0.016200
     29 H8          -2.9090    -1.0160     4.1240 h1         1 F6K       0.017700
     30 H9          -3.9420     0.1530     3.2900 h1         1 F6K       0.017700
     31 H10         -1.0140     0.5700     3.9970 hc         1 F6K       0.050200
     32 H11         -2.0480     1.7380     3.1630 hc         1 F6K       0.050200
     33 H12         -2.3970     0.1190     1.3270 hc         1 F6K       0.021200
     34 H13         -1.3640    -1.0500     2.1610 hc         1 F6K       0.021200
     35 H14         -0.4550     1.7190     1.2520 hc         1 F6K       0.077700
     36 H15         -0.9560    -1.4600    -0.8840 ho         1 F6K       0.403000
     37 H16          2.8480    -0.2440     1.7480 hn         1 F6K       0.216500
     38 H17          1.8490    -2.2160    -0.2750 h4         1 F6K      -0.010800
     39 H18          1.4250     3.1000    -0.7230 ho         1 F6K       0.397000
     40 H19          4.0130     0.3350    -0.8480 hc         1 F6K       0.062700
     41 H20          4.0440     2.0320    -2.5520 hc         1 F6K       0.014700
     42 H21          3.6140     3.2950    -1.3820 hc         1 F6K       0.014700
     43 H22          6.7880     3.1870     0.4970 hc         1 F6K       0.018700
     44 H23          5.4070     4.2350     0.1340 hc         1 F6K       0.018700
     45 H24          5.1090     2.6050     2.2220 ha         1 F6K       0.097000
     46 C1          -1.8600     0.6850     3.3300 c3         1 F6K      -0.079400
@<TRIPOS>BOND
     1     1     2 1   
     2     1     3 1   
     3     1    10 1   
     4     1    11 1   
     5     2    22 1   
     6     2    23 1   
     7     2    24 1   
     8     3     4 1   
     9     3    14 1   
    10     3    15 1   
    11     4    17 1   
    12     4    18 1   
    13     4    25 1   
    14     5    18 1   
    15     5    21 2   
    16     5    26 1   
    17     6    19 1   
    18     6    20 1   
    19     6    27 1   
    20     6    28 1   
    21     7     8 1   
    22     7    29 1   
    23     7    30 1   
    24     7    46 1   
    25     9    10 1   
    26     9    33 1   
    27     9    34 1   
    28     9    46 1   
    29    10    12 1   
    30    10    35 1   
    31    11    36 1   
    32    12    13 2   
    33    12    14 1   
    34    14    37 1   
    35    15    16 2   
    36    15    38 1   
    37    17    39 1   
    38    18    19 1   
    39    18    40 1   
    40    19    41 1   
    41    19    42 1   
    42    20    21 1   
    43    20    43 1   
    44    20    44 1   
    45    21    45 1   
    46    31    46 1   
    47    32    46 1   
@<TRIPOS>SUBSTRUCTURE
     1 F6K         1 TEMP              0 ****  ****    0 ROOT
