@<TRIPOS>MOLECULE
F6M
   77    78     1     0     0
SMALL
bcc


@<TRIPOS>ATOM
      1 N3          -1.2860    -0.0210    -2.2220 n1         1 F6M      -0.393800
      2 C11         -0.7180    -0.0000    -1.2390 cg         1 F6M       0.240800
      3 C8           0.0000     0.0000     0.0000 ca         1 F6M      -0.037000
      4 C9           1.3980     0.0000     0.0000 ca         1 F6M      -0.053000
      5 C10          2.0850     0.0000     1.1930 ca         1 F6M      -0.111000
      6 C7          -0.6960     0.0060     1.2130 ca         1 F6M      -0.053000
      7 C6          -0.0030     0.0060     2.4020 ca         1 F6M      -0.111000
      8 C5           1.3890     0.0010     2.3980 ca         1 F6M       0.020600
      9 N2           2.0870    -0.0000     3.6040 nu         1 F6M      -0.285300
     10 C4           1.5720    -0.6680     4.7030 ca         1 F6M       0.727900
     11 N1           2.1910    -0.5600     5.8680 nb         1 F6M      -0.739000
     12 C3           1.7290    -1.1850     6.9440 ca         1 F6M       0.571200
     13 N8           2.3780    -1.0690     8.1600 nu         1 F6M      -0.529900
     14 C2           3.5880    -0.2500     8.2680 c3         1 F6M       0.238800
     15 C1           4.1030    -0.2900     9.7090 c3         1 F6M      -0.055400
     16 C31          5.3660     0.5650     9.8220 c3         1 F6M      -0.008100
     17 N4           0.4720    -1.3920     4.5560 nb         1 F6M      -0.729000
     18 C12         -0.0550    -2.0480     5.5770 ca         1 F6M       0.536200
     19 C13          0.5630    -1.9700     6.8260 ca         1 F6M      -0.348600
     20 C14          0.0260    -2.6640     7.9580 cg         1 F6M      -0.064000
     21 C15         -0.2280    -3.0350     8.8560 c1         1 F6M      -0.164100
     22 C16         -0.5000    -4.1630    10.1190 c3         1 F6M       0.149700
     23 C17         -1.6520    -4.6880    10.0190 c3         1 F6M      -0.029400
     24 C18         -2.2230    -5.3350    11.5540 c3         1 F6M       0.063000
     25 N5          -3.7460    -6.0810    11.2470 ns         1 F6M      -0.277900
     26 C19         -3.9940    -7.1330    12.1700 c          1 F6M       0.560100
     27 O1          -3.0510    -7.5820    13.0710 o          1 F6M      -0.666100
     28 C20         -5.5050    -7.4450    12.3480 c3         1 F6M       0.020700
     29 C28         -6.3190    -6.5740    11.9050 c3         1 F6M      -0.046100
     30 N6          -5.7650    -7.9390    13.6610 n          1 F6M      -0.275800
     31 C27         -5.6710    -6.8890    14.5880 c3         1 F6M       0.099300
     32 C21         -6.2390    -9.3810    13.8730 c          1 F6M       0.715300
     33 O2          -6.4800    -9.9420    13.0040 o          1 F6M      -0.482100
     34 C22         -6.0290    -9.9090    15.4340 ce         1 F6M      -0.236200
     35 C23         -6.3190   -11.2880    15.7300 c2         1 F6M      -0.160200
     36 C24         -7.1250   -12.2020    14.5340 c3         1 F6M       0.146000
     37 N7          -8.6460   -12.3500    14.9240 n3         1 F6M      -0.521600
     38 C25         -8.3550   -13.4980    15.9820 c3         1 F6M       0.164600
     39 C26         -8.9610   -11.2240    15.4010 c3         1 F6M       0.164600
     40 H1           1.6670    -0.2970    -1.0070 ha         1 F6M       0.117000
     41 H2           3.1670     0.0590     1.1960 ha         1 F6M       0.122500
     42 H3          -1.7050    -0.3730     1.0980 ha         1 F6M       0.117000
     43 H4          -0.4770     0.2050     3.3560 ha         1 F6M       0.122500
     44 H5           3.0880    -0.0030     3.5870 hn         1 F6M       0.282800
     45 H6           1.8020    -1.6020     8.7810 hn         1 F6M       0.324800
     46 H7           4.4230    -0.6200     7.6860 h1         1 F6M       0.039200
     47 H8           3.1630     0.7430     8.1830 h1         1 F6M       0.039200
     48 H9           3.4200     0.0220    10.4900 hc         1 F6M       0.010700
     49 H10          4.3940    -1.1880    10.2410 hc         1 F6M       0.010700
     50 H11          5.6990     0.5870    10.8530 hc         1 F6M       0.001367
     51 H12          6.0970    -0.1310     9.4280 hc         1 F6M       0.001367
     52 H13          5.5570     1.5930     9.5370 hc         1 F6M       0.001367
     53 H14         -0.9110    -2.7020     5.4650 h4         1 F6M      -0.014900
     54 H15          0.3260    -4.8020    10.4070 hc         1 F6M       0.009200
     55 H16         -0.2640    -3.5110    10.9510 hc         1 F6M       0.009200
     56 H17         -2.4320    -3.9400     9.9460 hc         1 F6M       0.025700
     57 H18         -1.9800    -5.4500     9.3220 hc         1 F6M       0.025700
     58 H19         -1.5750    -6.2020    11.5850 h1         1 F6M       0.031200
     59 H20         -2.0520    -4.8470    12.5060 h1         1 F6M       0.031200
     60 H21         -4.2780    -5.8710    10.4250 hn         1 F6M       0.207500
     61 H22         -5.5450    -8.1710    11.5450 h1         1 F6M       0.026700
     62 H23         -7.3900    -6.5220    11.7450 hc         1 F6M       0.011367
     63 H24         -6.1140    -5.6910    12.4990 hc         1 F6M       0.011367
     64 H25         -6.0750    -6.1830    10.9240 hc         1 F6M       0.011367
     65 H26         -6.6920    -6.7340    14.9130 h1         1 F6M      -0.014633
     66 H27         -5.6470    -7.2030    15.6240 h1         1 F6M      -0.014633
     67 H28         -5.2980    -5.8750    14.5120 h1         1 F6M      -0.014633
     68 H29         -5.6520    -9.2130    16.1740 ha         1 F6M       0.126000
     69 H31         -6.1990   -11.4000    16.8010 ha         1 F6M       0.108000
     70 H33         -7.0980   -11.6250    13.6170 h1         1 F6M       0.047200
     71 H34         -6.3600   -12.9690    14.5260 h1         1 F6M       0.047200
     72 H36         -8.0110   -12.8940    16.8130 h1         1 F6M       0.015533
     73 H37         -9.3940   -13.7650    15.8350 h1         1 F6M       0.015533
     74 H38         -7.7440   -14.2200    15.4530 h1         1 F6M       0.015533
     75 H39         -8.7700   -10.3260    14.8250 h1         1 F6M       0.015533
     76 H40        -10.0150   -11.4380    15.5290 h1         1 F6M       0.015533
     77 H41         -8.7600   -10.9710    16.4350 h1         1 F6M       0.015533
@<TRIPOS>BOND
     1     1     2 3   
     2     2     3 1   
     3     3     4 ar  
     4     3     6 ar  
     5     4     5 ar  
     6     4    40 1   
     7     5     8 ar  
     8     5    41 1   
     9     6     7 ar  
    10     6    42 1   
    11     7     8 ar  
    12     7    43 1   
    13     8     9 1   
    14     9    10 1   
    15     9    44 1   
    16    10    11 ar  
    17    10    17 ar  
    18    11    12 ar  
    19    12    13 1   
    20    12    19 ar  
    21    13    14 1   
    22    13    45 1   
    23    14    15 1   
    24    14    46 1   
    25    14    47 1   
    26    15    16 1   
    27    15    48 1   
    28    15    49 1   
    29    16    50 1   
    30    16    51 1   
    31    16    52 1   
    32    17    18 ar  
    33    18    19 ar  
    34    18    53 1   
    35    19    20 1   
    36    20    21 3   
    37    21    22 1   
    38    22    23 1   
    39    22    54 1   
    40    22    55 1   
    41    23    24 1   
    42    23    56 1   
    43    23    57 1   
    44    24    25 1   
    45    24    58 1   
    46    24    59 1   
    47    25    26 1   
    48    25    60 1   
    49    26    27 2   
    50    26    28 1   
    51    28    29 1   
    52    28    30 1   
    53    28    61 1   
    54    29    62 1   
    55    29    63 1   
    56    29    64 1   
    57    30    31 1   
    58    30    32 1   
    59    31    65 1   
    60    31    66 1   
    61    31    67 1   
    62    32    33 2   
    63    32    34 1   
    64    34    35 2   
    65    34    68 1   
    66    35    36 1   
    67    35    69 1   
    68    36    37 1   
    69    36    70 1   
    70    36    71 1   
    71    37    38 1   
    72    37    39 1   
    73    38    72 1   
    74    38    73 1   
    75    38    74 1   
    76    39    75 1   
    77    39    76 1   
    78    39    77 1   
@<TRIPOS>SUBSTRUCTURE
     1 F6M         1 TEMP              0 ****  ****    0 ROOT
