@<TRIPOS>MOLECULE
molecule
   77    78     1     0     0
SMALL
bcc


@<TRIPOS>ATOM
      1 N3          -1.3000     0.0120    -2.2140 n1         1 F6M      -0.372800
      2 C11         -0.7180    -0.0000    -1.2390 cg         1 F6M       0.244800
      3 C8           0.0000     0.0000     0.0000 ca         1 F6M      -0.044000
      4 C9           1.3980     0.0000     0.0000 ca         1 F6M      -0.075500
      5 C10          2.0850     0.0000     1.1930 ca         1 F6M      -0.146500
      6 C7          -0.6960     0.0060     1.2130 ca         1 F6M      -0.075500
      7 C6          -0.0030     0.0060     2.4020 ca         1 F6M      -0.146500
      8 C5           1.3890     0.0010     2.3980 ca         1 F6M       0.180600
      9 N2           2.0870    -0.0000     3.6040 nu         1 F6M      -0.748300
     10 C4           1.5720    -0.6680     4.7030 ca         1 F6M       0.964900
     11 N1           2.1910    -0.5600     5.8680 nb         1 F6M      -0.861000
     12 C3           1.7290    -1.1850     6.9440 ca         1 F6M       0.777200
     13 N8           2.3780    -1.0690     8.1600 nu         1 F6M      -0.892900
     14 C2           3.5880    -0.2500     8.2680 c3         1 F6M       0.229800
     15 C1           4.1030    -0.2900     9.7090 c3         1 F6M      -0.102400
     16 C31          5.3660     0.5650     9.8220 c3         1 F6M      -0.088100
     17 N4           0.4720    -1.3920     4.5560 nb         1 F6M      -0.827000
     18 C12         -0.0550    -2.0480     5.5770 ca         1 F6M       0.534200
     19 C13          0.5630    -1.9700     6.8260 ca         1 F6M      -0.298600
     20 C14          0.0260    -2.6640     7.9580 cg         1 F6M      -0.166000
     21 C15         -0.3900    -3.5670     8.9320 c1         1 F6M      -0.138100
     22 C16         -0.6710    -4.3890     9.8210 c3         1 F6M      -0.005300
     23 C17         -2.1700    -4.7570     9.7690 c3         1 F6M      -0.083400
     24 C18         -2.4000    -5.5210    10.9270 c3         1 F6M       0.108000
     25 N5          -3.8660    -5.2530    11.0400 ns         1 F6M      -0.739900
     26 C19         -4.7770    -6.2200    12.3700 c          1 F6M       0.661100
     27 O1          -3.9350    -7.1570    12.7880 o          1 F6M      -0.507100
     28 C20         -6.1610    -5.7540    12.4630 c3         1 F6M       0.056700
     29 C28         -6.3410    -4.3770    13.0360 c3         1 F6M      -0.088100
     30 N6          -6.5770    -6.9430    13.5380 n          1 F6M      -0.597800
     31 C27         -6.0790    -6.7700    14.7700 c3         1 F6M       0.136300
     32 C21         -7.6230    -7.9580    12.9540 c          1 F6M       0.748300
     33 O2          -8.1390    -8.1380    12.0020 o          1 F6M      -0.446100
     34 C22         -7.8800    -8.9290    14.2280 ce         1 F6M      -0.317200
     35 C23         -9.1440    -9.8460    14.0020 c2         1 F6M      -0.115200
     36 C24         -9.4950   -10.6290    14.9550 c3         1 F6M       0.186000
     37 N7         -10.8930   -10.5740    14.9350 n3         1 F6M      -0.719600
     38 C25        -11.4400   -11.8600    16.1010 c3         1 F6M       0.134600
     39 C26        -11.6150    -9.3840    15.4000 c3         1 F6M       0.134600
     40 H1           1.9390     0.0520    -0.9370 ha         1 F6M       0.142500
     41 H2           3.1680     0.0000     1.1940 ha         1 F6M       0.153500
     42 H3          -1.7780     0.0630     1.2160 ha         1 F6M       0.142500
     43 H4          -0.5410     0.0100     3.3420 ha         1 F6M       0.153500
     44 H5           2.8220     0.6620     3.7570 hn         1 F6M       0.463800
     45 H6           2.0140    -1.5340     8.9680 hn         1 F6M       0.461800
     46 H7           4.2530    -0.4770     7.4440 h1         1 F6M       0.054200
     47 H8           3.3190     0.7990     8.2360 h1         1 F6M       0.054200
     48 H9           4.3880    -1.3040     9.9620 hc         1 F6M       0.046200
     49 H10          3.3220     0.0440    10.3810 hc         1 F6M       0.046200
     50 H11          5.1350     1.5880     9.5520 hc         1 F6M       0.038367
     51 H12          6.1260     0.1780     9.1540 hc         1 F6M       0.038367
     52 H13          5.7330     0.5350    10.8410 hc         1 F6M       0.038367
     53 H14         -0.9550    -2.6350     5.4390 h4         1 F6M       0.038100
     54 H15         -0.0790    -5.2850     9.6780 hc         1 F6M       0.070200
     55 H16         -0.4420    -3.9600    10.7890 hc         1 F6M       0.070200
     56 H17         -2.7780    -3.8600     9.7830 hc         1 F6M       0.057200
     57 H18         -2.3830    -5.3430     8.8830 hc         1 F6M       0.057200
     58 H19         -1.8550    -5.1310    11.7780 h1         1 F6M       0.041200
     59 H20         -2.1970    -6.5720    10.7600 h1         1 F6M       0.041200
     60 H21         -4.3680    -4.8820    10.2580 hn         1 F6M       0.275500
     61 H22         -6.6840    -5.8720    11.5220 h1         1 F6M       0.111700
     62 H23         -6.4520    -3.6620    12.2300 hc         1 F6M       0.058700
     63 H24         -7.2280    -4.3580    13.6590 hc         1 F6M       0.058700
     64 H25         -5.4750    -4.1180    13.6330 hc         1 F6M       0.058700
     65 H26         -5.3910    -5.9330    14.7680 h1         1 F6M       0.024367
     66 H27         -5.5550    -7.6670    15.0760 h1         1 F6M       0.024367
     67 H28         -6.8880    -6.5710    15.4620 h1         1 F6M       0.024367
     68 H29         -7.3000    -8.9260    15.1430 ha         1 F6M       0.162000
     69 H31         -9.7200    -9.7810    13.0870 ha         1 F6M       0.162000
     70 H33         -9.1130   -10.2700    15.9030 h1         1 F6M       0.055200
     71 H34         -9.1520   -11.6390    14.7630 h1         1 F6M       0.055200
     72 H36        -11.1340   -11.5910    17.1040 h1         1 F6M       0.037867
     73 H37        -10.9930   -12.8080    15.8280 h1         1 F6M       0.037867
     74 H38        -12.5190   -11.9460    16.0630 h1         1 F6M       0.037867
     75 H39        -12.6630    -9.6250    15.5310 h1         1 F6M       0.037867
     76 H40        -11.5160    -8.5920    14.6670 h1         1 F6M       0.037867
     77 H41        -11.1990    -9.0550    16.3450 h1         1 F6M       0.037867
@<TRIPOS>BOND
     1    15    16 1
     2    15    14 1
     3     1     2 3
     4    14    13 1
     5     2     3 1
     6     4     3 ar
     7     4     5 ar
     8    13    12 1
     9     3     6 ar
    10     5     8 ar
    11    12    11 ar
    12    12    19 ar
    13    11    10 ar
    14     6     7 ar
    15    22    21 1
    16    22    23 1
    17    21    20 3
    18     8     7 ar
    19     8     9 1
    20    20    19 1
    21    19    18 ar
    22    10     9 1
    23    10    17 ar
    24    23    24 1
    25    24    25 1
    26    18    17 ar
    27    25    26 1
    28    27    26 2
    29    26    28 1
    30    31    30 1
    31    29    28 1
    32    28    30 1
    33    30    32 1
    34    32    34 1
    35    32    33 2
    36    34    35 2
    37    35    36 1
    38    36    37 1
    39    37    39 1
    40    37    38 1
    41     4    40 1
    42     5    41 1
    43     6    42 1
    44     7    43 1
    45     9    44 1
    46    13    45 1
    47    14    46 1
    48    14    47 1
    49    15    48 1
    50    15    49 1
    51    16    50 1
    52    16    51 1
    53    16    52 1
    54    18    53 1
    55    22    54 1
    56    22    55 1
    57    23    56 1
    58    23    57 1
    59    24    58 1
    60    24    59 1
    61    25    60 1
    62    28    61 1
    63    29    62 1
    64    29    63 1
    65    29    64 1
    66    31    65 1
    67    31    66 1
    68    31    67 1
    69    34    68 1
    70    35    69 1
    71    36    70 1
    72    36    71 1
    73    38    72 1
    74    38    73 1
    75    38    74 1
    76    39    75 1
    77    39    76 1
    78    39    77 1
@<TRIPOS>SUBSTRUCTURE
     1 F6M         1 TEMP              0 ****  ****    0 ROOT
