@<TRIPOS>MOLECULE
F6R
   27    26     1     0     0
SMALL
bcc


@<TRIPOS>ATOM
      1 C1         -0.1590    0.6270    1.7630 c3        1 F6R      0.026400
      2 C2          1.1130    0.6130    0.9460 c         1 F6R      0.545100
      3 C3          2.3810    0.2300    1.7000 c3        1 F6R     -0.012900
      4 C4          3.3680    1.4170    1.7620 c3        1 F6R      0.093100
      5 C5          3.4970    2.0270    3.1720 c3        1 F6R      0.105100
      6 C6          2.2170    2.8080    3.5530 c3        1 F6R      0.198400
      7 O1         -0.9350    1.7660    1.4680 oh        1 F6R     -0.655800
      8 O2          1.1560    0.8220   -0.2750 o         1 F6R     -0.603100
      9 O3          3.0000   -0.8670    1.0410 oh        1 F6R     -0.608800
     10 O4          4.6440    0.9610    1.3190 oh        1 F6R     -0.638800
     11 O5          3.8510    1.0140    4.0830 oh        1 F6R     -0.666800
     12 O6          1.9080    2.6780    4.8830 os        1 F6R     -0.563200
     13 P           0.5360    1.6710    5.1880 p5        1 F6R      1.333900
     14 O1P         1.1390    0.3850    4.6550 o         1 F6R     -0.922167
     15 O2P        -0.4910    2.2210    4.2280 o         1 F6R     -0.922167
     16 O3P         0.2870    1.8000    6.6540 o         1 F6R     -0.922167
     17 H1C1       -0.7570   -0.2760    1.4560 h1        1 F6R      0.093200
     18 H1C2        0.0800    0.5780    2.8790 h1        1 F6R      0.093200
     19 H3          2.1350   -0.1410    2.7470 h1        1 F6R      0.188700
     20 H4          3.0820    2.2110    1.0200 h1        1 F6R      0.057700
     21 H5          4.3810    2.7270    3.1500 h1        1 F6R      0.014700
     22 H6C1        2.4160    3.8960    3.3180 h1        1 F6R     -0.002300
     23 H6C2        1.3600    2.4570    2.9050 h1        1 F6R     -0.002300
     24 H1         -0.9730    2.2860    2.2990 ho        1 F6R      0.478000
     25 HA          3.3150   -0.5360    0.1900 ho        1 F6R      0.391000
     26 HB          4.9380    0.3280    1.9890 ho        1 F6R      0.414000
     27 HC          3.0280    0.7630    4.5730 ho        1 F6R      0.487000
@<TRIPOS>BOND
     1    1    2 1   
     2    1    7 1   
     3    1   17 1   
     4    1   18 1   
     5    2    3 1   
     6    2    8 2   
     7    3    4 1   
     8    3    9 1   
     9    3   19 1   
    10    4    5 1   
    11    4   10 1   
    12    4   20 1   
    13    5    6 1   
    14    5   11 1   
    15    5   21 1   
    16    6   12 1   
    17    6   22 1   
    18    6   23 1   
    19    7   24 1   
    20    9   25 1   
    21   10   26 1   
    22   11   27 1   
    23   12   13 1   
    24   13   14 1   
    25   13   15 1   
    26   13   16 1   
@<TRIPOS>SUBSTRUCTURE
     1 F6R         1 TEMP              0 ****  ****    0 ROOT
