@<TRIPOS>MOLECULE
molecule
   27    26     1     0     0
SMALL
bcc


@<TRIPOS>ATOM
      1 C1           0.0000     0.0000     0.0000 c3         1 F6R       0.031400
      2 C2           1.5070     0.0000     0.0000 c          1 F6R       0.529100
      3 C3           2.2610     0.0000     1.3050 c3         1 F6R       0.053100
      4 C4           2.1930     1.3940     1.9320 c3         1 F6R       0.154100
      5 C5           3.0610     1.4300     3.1920 c3         1 F6R       0.119100
      6 C6           2.9940     2.8230     3.8200 c3         1 F6R       0.208400
      7 O1          -0.4760    -0.0000    -1.3470 oh         1 F6R      -0.590800
      8 O2           2.1110    -0.0010    -1.0460 o          1 F6R      -0.479100
      9 O3           3.6260    -0.3480     1.0660 oh         1 F6R      -0.552800
     10 O4           2.6740     2.3620     0.9960 oh         1 F6R      -0.582800
     11 O5           2.5810     0.4620     4.1280 oh         1 F6R      -0.631800
     12 O6           3.8920     2.8900     4.9280 os         1 F6R      -0.575200
     13 P            4.0810     4.2140     5.8250 p5         1 F6R       1.178900
     14 O1P          2.7080     4.5350     6.6030 o          1 F6R      -0.908833
     15 O2P          5.2600     3.9730     6.8950 o          1 F6R      -0.908833
     16 O3P          4.4310     5.3560     4.9520 o          1 F6R      -0.908833
     17 H1C1        -0.3610    -0.8840     0.5110 h1         1 F6R       0.040700
     18 H1C2        -0.3610     0.8850     0.5100 h1         1 F6R       0.040700
     19 H3           1.8170    -0.7220     1.9790 h1         1 F6R       0.055700
     20 H4           1.1670     1.6230     2.1940 h1         1 F6R       0.037700
     21 H5           4.0870     1.2010     2.9310 h1         1 F6R       0.062700
     22 H6C1         1.9840     3.0170     4.1610 h1         1 F6R       0.019700
     23 H6C2         3.2740     3.5650     3.0820 h1         1 F6R       0.019700
     24 H1          -1.4190    -0.0020    -1.3470 ho         1 F6R       0.390000
     25 HA           3.7320    -1.2810     1.1520 ho         1 F6R       0.384000
     26 HB           2.0560     3.0710     0.9320 ho         1 F6R       0.401000
     27 HC           3.3130     0.0330     4.5400 ho         1 F6R       0.411000
@<TRIPOS>BOND
     1     1     2 1
     2     1     7 1
     3     1    17 1
     4     1    18 1
     5     2     3 1
     6     2     8 2
     7     3     4 1
     8     3     9 1
     9     3    19 1
    10     4     5 1
    11     4    10 1
    12     4    20 1
    13     5     6 1
    14     5    11 1
    15     5    21 1
    16     6    12 1
    17     6    22 1
    18     6    23 1
    19     7    24 1
    20     9    25 1
    21    10    26 1
    22    11    27 1
    23    12    13 1
    24    13    14 1
    25    13    15 1
    26    13    16 1
@<TRIPOS>SUBSTRUCTURE
     1 F6R         1 TEMP              0 ****  ****    0 ROOT
