@<TRIPOS>MOLECULE
molecule
   42    44     1     0     0
SMALL
bcc


@<TRIPOS>ATOM
      1 FAT          0.0000     0.0000     0.0000 f          1 F6T      -0.132900
      2 CAS          1.3510     0.0000     0.0000 ca         1 F6T       0.159900
      3 CAU          2.0430     0.0000     1.1990 ca         1 F6T      -0.180500
      4 CAV          3.4250     0.0000     1.2010 ca         1 F6T      -0.082000
      5 CAW          4.1170     0.0020     0.0050 ca         1 F6T      -0.180500
      6 CAX          3.4270     0.0010    -1.1960 ca         1 F6T       0.159900
      7 FAY          4.1050     0.0010    -2.3650 f          1 F6T      -0.132900
      8 CAR          2.0430    -0.0060    -1.1980 ca         1 F6T      -0.158300
      9 CAB          1.2910    -0.0130    -2.5030 c3         1 F6T      -0.007400
     10 CAA          1.6610     1.2330    -3.3120 c3         1 F6T      -0.077100
     11 CAC          1.6620    -1.2660    -3.2990 c3         1 F6T      -0.156400
     12 CAD          0.8200    -1.3360    -4.5470 c          1 F6T       0.658100
     13 OAQ          0.0040    -0.4690    -4.7770 o          1 F6T      -0.608100
     14 NAE          0.9740    -2.3620    -5.4070 ns         1 F6T      -0.587900
     15 CAF          0.1560    -2.4300    -6.6200 c3         1 F6T       0.165300
     16 CAG          0.5220    -3.6650    -7.4040 ca         1 F6T      -0.114300
     17 CAP         -0.1430    -4.8520    -7.1650 ca         1 F6T      -0.111000
     18 CAO          0.1930    -5.9880    -7.8870 ca         1 F6T      -0.008400
     19 NAM         -0.2780    -7.2980    -7.8800 ns         1 F6T      -0.448100
     20 CAL          0.4130    -8.0020    -8.7970 c          1 F6T       0.800500
     21 OAN          0.2480    -9.1820    -9.0450 o          1 F6T      -0.655500
     22 NAK          1.3130    -7.2010    -9.3990 ns         1 F6T      -0.448100
     23 CAJ          1.2020    -5.9260    -8.8500 ca         1 F6T       0.000600
     24 CAI          1.8630    -4.7300    -9.0830 ca         1 F6T      -0.128000
     25 CAH          1.5170    -3.6020    -8.3630 ca         1 F6T      -0.108000
     26 H1           1.5010    -0.0010     2.1370 ha         1 F6T       0.149500
     27 H2           3.9660     0.0000     2.1390 ha         1 F6T       0.144000
     28 H3           5.2010     0.0020     0.0070 ha         1 F6T       0.149500
     29 H4           0.2260    -0.0130    -2.3060 hc         1 F6T       0.086700
     30 H5           2.3350     1.8520    -2.7330 hc         1 F6T       0.042700
     31 H6           0.7630     1.7940    -3.5410 hc         1 F6T       0.042700
     32 H7           2.1450     0.9350    -4.2340 hc         1 F6T       0.042700
     33 H8           1.4830    -2.1460    -2.6930 hc         1 F6T       0.068200
     34 H9           2.7100    -1.2240    -3.5720 hc         1 F6T       0.068200
     35 H10          1.6150    -3.1010    -5.1940 hn         1 F6T       0.317500
     36 H11          0.3350    -1.5510    -7.2270 h1         1 F6T       0.060700
     37 H12         -0.8920    -2.4730    -6.3470 h1         1 F6T       0.060700
     38 H13         -0.9750    -4.8780    -6.4720 ha         1 F6T       0.142000
     39 H14         -1.0060    -7.6560    -7.2940 hn         1 F6T       0.363500
     40 H15          1.9530    -7.4760   -10.1180 hn         1 F6T       0.363500
     41 H16          2.6420    -4.6770    -9.8330 ha         1 F6T       0.139000
     42 H17          2.0260    -2.6650    -8.5520 ha         1 F6T       0.144000
@<TRIPOS>BOND
     1     3     4 ar
     2     3     2 ar
     3     4     5 ar
     4     1     2 1
     5     2     8 ar
     6     5     6 ar
     7     8     6 ar
     8     8     9 1
     9     6     7 1
    10    11     9 1
    11    11    12 1
    12     9    10 1
    13    14    12 1
    14    14    15 1
    15    12    13 2
    16    15    16 1
    17    25    16 ar
    18    25    24 ar
    19    16    17 ar
    20    24    23 ar
    21    17    18 ar
    22    23    18 ar
    23    23    22 1
    24    18    19 1
    25    22    20 1
    26    19    20 1
    27    20    21 2
    28     3    26 1
    29     4    27 1
    30     5    28 1
    31     9    29 1
    32    10    30 1
    33    10    31 1
    34    10    32 1
    35    11    33 1
    36    11    34 1
    37    14    35 1
    38    15    36 1
    39    15    37 1
    40    17    38 1
    41    19    39 1
    42    22    40 1
    43    24    41 1
    44    25    42 1
@<TRIPOS>SUBSTRUCTURE
     1 F6T         1 TEMP              0 ****  ****    0 ROOT
