@<TRIPOS>MOLECULE
F6T
   42    44     1     0     0
SMALL
bcc


@<TRIPOS>ATOM
      1 FAT          0.0000     0.0000     0.0000 f          1 F6T      -0.122900
      2 CAS          1.3510     0.0000     0.0000 ca         1 F6T       0.135400
      3 CAU          2.0430     0.0000     1.1990 ca         1 F6T      -0.143500
      4 CAV          3.4250     0.0000     1.2010 ca         1 F6T      -0.053000
      5 CAW          4.1170     0.0020     0.0050 ca         1 F6T      -0.143500
      6 CAX          3.4270     0.0010    -1.1960 ca         1 F6T       0.135400
      7 FAY          4.1050     0.0010    -2.3650 f          1 F6T      -0.122900
      8 CAR          2.0430    -0.0060    -1.1980 ca         1 F6T      -0.148300
      9 CAB          1.2910    -0.0130    -2.5030 c3         1 F6T       0.027600
     10 CAA          1.6610     1.2330    -3.3120 c3         1 F6T       0.002900
     11 CAC          1.6620    -1.2660    -3.2990 c3         1 F6T      -0.106400
     12 CAD          0.8200    -1.3360    -4.5470 c          1 F6T       0.573100
     13 OAQ          0.0040    -0.4690    -4.7770 o          1 F6T      -0.646100
     14 NAE          0.9740    -2.3620    -5.4070 ns         1 F6T      -0.202900
     15 CAF          0.1560    -2.4300    -6.6200 c3         1 F6T       0.116300
     16 CAG          0.5220    -3.6650    -7.4040 ca         1 F6T      -0.123300
     17 CAP         -0.1430    -4.8520    -7.1650 ca         1 F6T      -0.068000
     18 CAO          0.1930    -5.9880    -7.8870 ca         1 F6T      -0.166400
     19 NAM         -0.2780    -7.2980    -7.8800 ns         1 F6T       0.023900
     20 CAL          0.4130    -8.0020    -8.7970 c          1 F6T       0.555500
     21 OAN          0.2480    -9.1820    -9.0450 o          1 F6T      -0.712500
     22 NAK          1.3130    -7.2010    -9.3990 ns         1 F6T       0.023900
     23 CAJ          1.2020    -5.9260    -8.8500 ca         1 F6T      -0.158400
     24 CAI          1.8630    -4.7300    -9.0830 ca         1 F6T      -0.084000
     25 CAH          1.5170    -3.6020    -8.3630 ca         1 F6T      -0.081000
     26 H1           1.5010    -0.0010     2.1370 ha         1 F6T       0.122500
     27 H2           3.9660     0.0000     2.1390 ha         1 F6T       0.111000
     28 H3           5.2010     0.0020     0.0070 ha         1 F6T       0.122500
     29 H4           0.2260    -0.0130    -2.3060 hc         1 F6T       0.059700
     30 H5           2.3350     1.8520    -2.7330 hc         1 F6T       0.012700
     31 H6           0.7630     1.7940    -3.5410 hc         1 F6T       0.012700
     32 H7           2.1450     0.9350    -4.2340 hc         1 F6T       0.012700
     33 H8           1.4830    -2.1460    -2.6930 hc         1 F6T       0.037200
     34 H9           2.7100    -1.2240    -3.5720 hc         1 F6T       0.037200
     35 H10          1.6150    -3.1010    -5.1940 hn         1 F6T       0.177500
     36 H11          0.3350    -1.5510    -7.2270 h1         1 F6T       0.029700
     37 H12         -0.8920    -2.4730    -6.3470 h1         1 F6T       0.029700
     38 H13         -0.9750    -4.8780    -6.4720 ha         1 F6T       0.113000
     39 H14         -1.0060    -7.6560    -7.2940 hn         1 F6T       0.192500
     40 H15          1.9530    -7.4760   -10.1180 hn         1 F6T       0.192500
     41 H16          2.6420    -4.6770    -9.8330 ha         1 F6T       0.109000
     42 H17          2.0260    -2.6650    -8.5520 ha         1 F6T       0.114000
@<TRIPOS>BOND
     1     1     2 1   
     2     2     3 ar  
     3     2     8 ar  
     4     3     4 ar  
     5     3    26 1   
     6     4     5 ar  
     7     4    27 1   
     8     5     6 ar  
     9     5    28 1   
    10     6     7 1   
    11     6     8 ar  
    12     8     9 1   
    13     9    10 1   
    14     9    11 1   
    15     9    29 1   
    16    10    30 1   
    17    10    31 1   
    18    10    32 1   
    19    11    12 1   
    20    11    33 1   
    21    11    34 1   
    22    12    13 2   
    23    12    14 1   
    24    14    15 1   
    25    14    35 1   
    26    15    16 1   
    27    15    36 1   
    28    15    37 1   
    29    16    17 ar  
    30    16    25 ar  
    31    17    18 ar  
    32    17    38 1   
    33    18    19 1   
    34    18    23 ar  
    35    19    20 1   
    36    19    39 1   
    37    20    21 2   
    38    20    22 1   
    39    22    23 1   
    40    22    40 1   
    41    23    24 ar  
    42    24    25 ar  
    43    24    41 1   
    44    25    42 1   
@<TRIPOS>SUBSTRUCTURE
     1 F6T         1 TEMP              0 ****  ****    0 ROOT
