@<TRIPOS>MOLECULE
F6W
   35    36     1     0     0
SMALL
bcc


@<TRIPOS>ATOM
      1 C1           0.0000     0.0000     0.0000 ca         1 F6W       0.029000
      2 C2           1.3810     0.0000     0.0000 ca         1 F6W      -0.121500
      3 C3          -0.0080    -0.0060     2.3970 ca         1 F6W       0.029000
      4 C4           1.3740    -0.0000     2.4050 ca         1 F6W      -0.121500
      5 C5           2.0740     0.0000     1.2050 ca         1 F6W       0.146900
      6 C6           4.2380    -0.0010     2.9790 c3         1 F6W       0.078700
      7 C11          6.7050    -0.0010     7.3220 ca         1 F6W      -0.089000
      8 O1          -2.8510     0.5550    -0.0580 o          1 F6W      -0.497800
      9 O           -2.8590     0.5490     2.4400 o          1 F6W      -0.497800
     10 N           -2.9520    -1.5740     1.1850 nz         1 F6W      -0.131500
     11 C           -0.6930    -0.0010     1.1960 ca         1 F6W      -0.249500
     12 S1           3.8360    -0.0010     1.2100 ss         1 F6W      -0.253000
     13 C7           5.7580    -0.0010     3.1560 c3         1 F6W       0.056900
     14 C8           6.0930    -0.0010     4.6260 ca         1 F6W      -0.097300
     15 C13          6.2570     1.1950     5.2970 ca         1 F6W      -0.101000
     16 C12          6.5580     1.1950     6.6470 ca         1 F6W      -0.100000
     17 C10          6.5520    -1.1990     6.6480 ca         1 F6W      -0.100000
     18 C9           6.2450    -1.1990     5.2990 ca         1 F6W      -0.101000
     19 H1          -0.5410     0.0020    -0.9390 ha         1 F6W       0.125000
     20 H2           1.9240     0.0000    -0.9380 ha         1 F6W       0.143000
     21 H3          -0.5550    -0.0060     3.3320 ha         1 F6W       0.125000
     22 H4           1.9110    -0.0020     3.3460 ha         1 F6W       0.143000
     23 H5           3.8200     0.8830     3.4450 h1         1 F6W       0.046200
     24 H6           3.8200    -0.8860     3.4450 h1         1 F6W       0.046200
     25 H8          -2.6000    -2.0310     0.3680 hn         1 F6W       0.312467
     26 H9          -3.9520    -1.5980     1.1770 hn         1 F6W       0.312467
     27 H10          6.1760    -0.8850     2.6900 hc         1 F6W       0.035200
     28 H11          6.1760     0.8840     2.6910 hc         1 F6W       0.035200
     29 H12          6.1860     2.1320     4.7580 ha         1 F6W       0.110500
     30 H13          6.6800     2.1340     7.1740 ha         1 F6W       0.109500
     31 H14          6.6660    -2.1370     7.1780 ha         1 F6W       0.109500
     32 H15          6.3030    -2.2220     4.9480 ha         1 F6W       0.110500
     33 S           -2.4550     0.0060     1.1900 sy         1 F6W       0.934200
     34 HN3         -2.6030    -2.0350     2.0020 hn         1 F6W       0.312467
     35 H7           6.9390     0.0010     8.3800 ha         1 F6W       0.109000
@<TRIPOS>BOND
     1     1     2 ar  
     2     1    11 ar  
     3     1    19 1   
     4     2     5 ar  
     5     2    20 1   
     6     3     4 ar  
     7     3    11 ar  
     8     3    21 1   
     9     4     5 ar  
    10     4    22 1   
    11     5    12 1   
    12     6    12 1   
    13     6    13 1   
    14     6    23 1   
    15     6    24 1   
    16     7    16 ar  
    17     7    17 ar  
    18     7    35 1   
    19     8    33 2   
    20     9    33 2   
    21    10    25 1   
    22    10    26 1   
    23    10    33 1   
    24    10    34 1   
    25    11    33 1   
    26    13    14 1   
    27    13    27 1   
    28    13    28 1   
    29    14    15 ar  
    30    14    18 ar  
    31    15    16 ar  
    32    15    29 1   
    33    16    30 1   
    34    17    18 ar  
    35    17    31 1   
    36    18    32 1   
@<TRIPOS>SUBSTRUCTURE
     1 F6W         1 TEMP              0 ****  ****    0 ROOT
