@<TRIPOS>MOLECULE
molecule
   39    43     1     0     0
SMALL
bcc


@<TRIPOS>ATOM
      1 O1           0.0000     0.0000     0.0000 o          1 F6Y      -0.599500
      2 C1           1.2140     0.0000     0.0000 c          1 F6Y       0.741200
      3 C2           2.0540     0.0000     1.2010 ca         1 F6Y      -0.236600
      4 C3           1.7110    -0.0010     2.5560 ca         1 F6Y      -0.070000
      5 C4           2.7520    -0.0020     3.4690 ca         1 F6Y      -0.110000
      6 O2           1.9870    -0.0040    -1.1030 os         1 F6Y      -0.392900
      7 C5           3.3900    -0.0020    -0.7040 c3         1 F6Y       0.309700
      8 C6           4.0630    -1.2410    -1.2280 ca         1 F6Y      -0.145800
      9 C7           3.4000    -2.4540    -1.1560 ca         1 F6Y      -0.051000
     10 C8           3.9980    -3.6040    -1.6320 ca         1 F6Y      -0.179500
     11 C9           5.2700    -3.5470    -2.1850 ca         1 F6Y       0.133100
     12 O3           5.8590    -4.6780    -2.6540 oh         1 F6Y      -0.526600
     13 C11          5.9370    -2.3350    -2.2570 ca         1 F6Y      -0.179000
     14 C12          5.3340    -1.1780    -1.7770 ca         1 F6Y       0.165100
     15 O4           6.0040    -0.0050    -1.8540 os         1 F6Y      -0.229200
     16 C13          5.3330     1.1700    -1.7860 ca         1 F6Y       0.165100
     17 C14          5.9340     2.3230    -2.2750 ca         1 F6Y      -0.179000
     18 C15          5.2650     3.5340    -2.2150 ca         1 F6Y       0.133100
     19 O5           5.8530     4.6620    -2.6940 oh         1 F6Y      -0.526600
     20 C16          3.9910     3.5940    -1.6670 ca         1 F6Y      -0.179500
     21 C17          3.3950     2.4460    -1.1820 ca         1 F6Y      -0.051000
     22 C18          4.0610     1.2350    -1.2390 ca         1 F6Y      -0.145800
     23 C19          3.4010     0.0010     0.7930 ca         1 F6Y      -0.126300
     24 C20          4.4340     0.0010     1.7010 ca         1 F6Y      -0.069000
     25 C21          4.0840    -0.0010     3.0600 ca         1 F6Y      -0.067600
     26 C22          5.1540    -0.0000     4.0830 c          1 F6Y       0.875200
     27 O6           6.3200     0.0010     3.7420 o          1 F6Y      -0.823800
     28 O7           4.8350    -0.0020     5.3920 o          1 F6Y      -0.823800
     29 H3           0.6760    -0.0020     2.8780 ha         1 F6Y       0.135000
     30 H4           2.5250    -0.0030     4.5280 ha         1 F6Y       0.166000
     31 H7           2.4070    -2.5010    -0.7250 ha         1 F6Y       0.150000
     32 H8           3.4700    -4.5490    -1.5840 ha         1 F6Y       0.140000
     33 HA           6.3840    -5.0650    -1.9730 ho         1 F6Y       0.421500
     34 H11          6.9290    -2.2890    -2.6880 ha         1 F6Y       0.151000
     35 H14          6.9270     2.2750    -2.7060 ha         1 F6Y       0.151000
     36 H5           6.3760     5.0560    -2.0150 ho         1 F6Y       0.421500
     37 H16          3.4650     4.5400    -1.6190 ha         1 F6Y       0.140000
     38 H17          2.4000     2.4950    -0.7550 ha         1 F6Y       0.150000
     39 H20          5.4690     0.0010     1.3820 ha         1 F6Y       0.164000
@<TRIPOS>BOND
     1     1     2 2
     2     2     3 1
     3     2     6 1
     4     3     4 ar
     5     3    23 ar
     6     4     5 ar
     7     5    25 ar
     8     6     7 1
     9     7     8 1
    10     7    22 1
    11     7    23 1
    12     8     9 ar
    13     8    14 ar
    14     9    10 ar
    15    10    11 ar
    16    11    12 1
    17    11    13 ar
    18    13    14 ar
    19    14    15 1
    20    15    16 1
    21    16    17 ar
    22    16    22 ar
    23    17    18 ar
    24    18    19 1
    25    18    20 ar
    26    20    21 ar
    27    21    22 ar
    28    23    24 ar
    29    24    25 ar
    30    25    26 1
    31    26    27 1
    32    26    28 1
    33     4    29 1
    34     5    30 1
    35     9    31 1
    36    10    32 1
    37    12    33 1
    38    13    34 1
    39    17    35 1
    40    19    36 1
    41    20    37 1
    42    21    38 1
    43    24    39 1
@<TRIPOS>SUBSTRUCTURE
     1 F6Y         1 TEMP              0 ****  ****    0 ROOT
