@<TRIPOS>MOLECULE
F6Y
   39    43     1     0     0
SMALL
bcc


@<TRIPOS>ATOM
      1 O1         -0.0400   -0.0690   -0.2670 o         1 F6Y     -0.599500
      2 C1          1.1610   -0.0480   -0.0140 c         1 F6Y      0.734200
      3 C2          1.9690   -0.0150    1.2090 ca        1 F6Y     -0.212600
      4 C3          1.6020    0.0020    2.5430 ca        1 F6Y     -0.072000
      5 C4          2.6180    0.0330    3.5070 ca        1 F6Y     -0.125000
      6 O2          2.0020   -0.0560   -1.1270 os        1 F6Y     -0.426900
      7 C5          3.4120   -0.0290   -0.6910 c3        1 F6Y      0.320700
      8 C6          4.0710   -1.2710   -1.2100 ca        1 F6Y     -0.154300
      9 C7          3.5260   -2.5320   -0.9300 ca        1 F6Y     -0.031000
     10 C8          4.1310   -3.6960   -1.3830 ca        1 F6Y     -0.182000
     11 C9          5.3160   -3.6030   -2.1360 ca        1 F6Y      0.151100
     12 O3          5.8720   -4.7880   -2.5600 oh        1 F6Y     -0.500100
     13 C11         5.8840   -2.3640   -2.4440 ca        1 F6Y     -0.242000
     14 C12         5.2420   -1.2060   -1.9750 ca        1 F6Y      0.170100
     15 O4          5.8750   -0.0230   -2.3280 os        1 F6Y     -0.234200
     16 C13         5.2090    1.1540   -2.0160 ca        1 F6Y      0.170100
     17 C14         5.8190    2.3120   -2.5250 ca        1 F6Y     -0.242000
     18 C15         5.2160    3.5450   -2.2600 ca        1 F6Y      0.151100
     19 O5          5.7400    4.7300   -2.7250 oh        1 F6Y     -0.500100
     20 C16         4.0300    3.6320   -1.5100 ca        1 F6Y     -0.182000
     21 C17         3.4570    2.4680   -1.0170 ca        1 F6Y     -0.031000
     22 C18         4.0360    1.2130   -1.2530 ca        1 F6Y     -0.154300
     23 C19         3.3380   -0.0030    0.8260 ca        1 F6Y     -0.121300
     24 C20         4.3340    0.0270    1.7800 ca        1 F6Y     -0.073000
     25 C21         3.9650    0.0450    3.1400 ca        1 F6Y     -0.091600
     26 C22         5.0510    0.0790    4.2150 c         1 F6Y      0.906200
     27 O6          6.2510    0.0890    3.8290 o         1 F6Y     -0.814800
     28 O7          4.6760    0.0940    5.4190 o         1 F6Y     -0.814800
     29 H3          0.5420   -0.0070    2.8360 ha        1 F6Y      0.131000
     30 H4          2.3750    0.0480    4.5830 ha        1 F6Y      0.165000
     31 H7          2.5990   -2.5860   -0.3350 ha        1 F6Y      0.154000
     32 H8          3.7080   -4.6840   -1.1580 ha        1 F6Y      0.151000
     33 HA          6.7100   -4.5820   -2.9990 ho        1 F6Y      0.416000
     34 H11         6.8080   -2.2800   -3.0290 ha        1 F6Y      0.147000
     35 H14         6.7460    2.2340   -3.1070 ha        1 F6Y      0.147000
     36 H5          6.5830    4.5320   -3.1580 ho        1 F6Y      0.416000
     37 H16         3.5790    4.6150   -1.3190 ha        1 F6Y      0.151000
     38 H17         2.5290    2.5160   -0.4230 ha        1 F6Y      0.154000
     39 H20         5.4070    0.0370    1.5290 ha        1 F6Y      0.172000
@<TRIPOS>BOND
     1    1    2 2   
     2    2    3 1   
     3    2    6 1   
     4    3    4 ar  
     5    3   23 ar  
     6    4    5 ar  
     7    4   29 1   
     8    5   25 ar  
     9    5   30 1   
    10    6    7 1   
    11    7    8 1   
    12    7   22 1   
    13    7   23 1   
    14    8    9 ar  
    15    8   14 ar  
    16    9   10 ar  
    17    9   31 1   
    18   10   11 ar  
    19   10   32 1   
    20   11   12 1   
    21   11   13 ar  
    22   12   33 1   
    23   13   14 ar  
    24   13   34 1   
    25   14   15 1   
    26   15   16 1   
    27   16   17 ar  
    28   16   22 ar  
    29   17   18 ar  
    30   17   35 1   
    31   18   19 1   
    32   18   20 ar  
    33   19   36 1   
    34   20   21 ar  
    35   20   37 1   
    36   21   22 ar  
    37   21   38 1   
    38   23   24 ar  
    39   24   25 ar  
    40   24   39 1   
    41   25   26 1   
    42   26   27 1   
    43   26   28 1   
@<TRIPOS>SUBSTRUCTURE
     1 F6Y         1 TEMP              0 ****  ****    0 ROOT
