@<TRIPOS>MOLECULE
molecule
   39    43     1     0     0
SMALL
bcc


@<TRIPOS>ATOM
      1 O1           0.0000     0.0000     0.0000 o          1 F6Z      -0.588500
      2 C1           1.2150     0.0000     0.0000 c          1 F6Z       0.740200
      3 C2           2.0540     0.0000     1.1980 ca         1 F6Z      -0.239600
      4 C3           1.7130     0.0000     2.5520 ca         1 F6Z      -0.010000
      5 C4           2.7720     0.0010     3.4670 ca         1 F6Z      -0.113600
      6 O2           1.9870    -0.0060    -1.1040 os         1 F6Z      -0.398900
      7 C5           3.3900    -0.0050    -0.7070 c3         1 F6Z       0.309700
      8 C6           4.0620     1.2300    -1.2440 ca         1 F6Z      -0.145300
      9 C7           3.3980     2.4430    -1.1830 ca         1 F6Z      -0.049000
     10 C8           3.9950     3.5890    -1.6700 ca         1 F6Z      -0.178500
     11 C9           5.2660     3.5270    -2.2240 ca         1 F6Z       0.130600
     12 O3           5.8540     4.6530    -2.7050 oh         1 F6Z      -0.521100
     13 C11          5.9330     2.3150    -2.2850 ca         1 F6Z      -0.182500
     14 C12          5.3330     1.1630    -1.7930 ca         1 F6Z       0.158100
     15 O4           6.0030    -0.0120    -1.8590 os         1 F6Z      -0.233200
     16 C13          5.3310    -1.1850    -1.7800 ca         1 F6Z       0.158100
     17 C14          5.9320    -2.3440    -2.2590 ca         1 F6Z      -0.182500
     18 C15          5.2630    -3.5540    -2.1870 ca         1 F6Z       0.130600
     19 O5           5.8520    -4.6860    -2.6530 oh         1 F6Z      -0.521100
     20 C16          3.9900    -3.6090    -1.6350 ca         1 F6Z      -0.178500
     21 C17          3.3950    -2.4580    -1.1610 ca         1 F6Z      -0.049000
     22 C18          4.0610    -1.2460    -1.2300 ca         1 F6Z      -0.145300
     23 C19          3.4020    -0.0010     0.7900 ca         1 F6Z      -0.124300
     24 C20          4.4390    -0.0000     1.6980 ca         1 F6Z      -0.122000
     25 C21          4.1020     0.0010     3.0450 ca         1 F6Z      -0.063000
     26 O6           1.3220     0.0010     5.2980 o          1 F6Z      -0.826300
     27 C25          2.4750     0.0010     4.9150 c          1 F6Z       0.879200
     28 O7           3.4820     0.0020     5.8090 o          1 F6Z      -0.826300
     29 H3           0.6800     0.0000     2.8780 ha         1 F6Z       0.173000
     30 H21          4.8920     0.0020     3.7870 ha         1 F6Z       0.167000
     31 H7           2.4060     2.4940    -0.7510 ha         1 F6Z       0.155000
     32 H8           3.4880     4.5420    -1.5850 ha         1 F6Z       0.143000
     33 HA           5.6660     4.7380    -3.6250 ho         1 F6Z       0.416000
     34 H11          6.9260     2.2660    -2.7170 ha         1 F6Z       0.149000
     35 H14          6.9280    -2.3010    -2.6840 ha         1 F6Z       0.149000
     36 H5           5.6700    -4.7790    -3.5730 ho         1 F6Z       0.416000
     37 H16          3.4650    -4.5550    -1.5780 ha         1 F6Z       0.143000
     38 H17          2.4020    -2.5030    -0.7310 ha         1 F6Z       0.155000
     39 H20          5.4730    -0.0010     1.3750 ha         1 F6Z       0.130000
@<TRIPOS>BOND
     1     1     2 2
     2     2     3 1
     3     2     6 1
     4     3     4 ar
     5     3    23 ar
     6     4     5 ar
     7     5    25 ar
     8     5    27 1
     9     6     7 1
    10     7     8 1
    11     7    22 1
    12     7    23 1
    13     8     9 ar
    14     8    14 ar
    15     9    10 ar
    16    10    11 ar
    17    11    12 1
    18    11    13 ar
    19    13    14 ar
    20    14    15 1
    21    15    16 1
    22    16    17 ar
    23    16    22 ar
    24    17    18 ar
    25    18    19 1
    26    18    20 ar
    27    20    21 ar
    28    21    22 ar
    29    23    24 ar
    30    24    25 ar
    31    26    27 1
    32    27    28 1
    33     4    29 1
    34    25    30 1
    35     9    31 1
    36    10    32 1
    37    12    33 1
    38    13    34 1
    39    17    35 1
    40    19    36 1
    41    20    37 1
    42    21    38 1
    43    24    39 1
@<TRIPOS>SUBSTRUCTURE
     1 F6Z         1 TEMP              0 ****  ****    0 ROOT
