@<TRIPOS>MOLECULE
F70
   34    36     1     0     0
SMALL
bcc


@<TRIPOS>ATOM
      1 NAB         -0.8870    -0.0070    -2.4520 n1         1 F70      -0.347800
      2 CAC         -0.4900    -0.0010    -1.3880 c1         1 F70       0.198700
      3 CAD          0.0000     0.0000     0.0000 c3         1 F70       0.342500
      4 OAE          1.4530     0.0000     0.0000 os         1 F70      -0.435900
      5 CAF          2.0640     0.0000     1.2000 c          1 F70       0.724700
      6 OAG          1.4020     0.0010     2.2190 o          1 F70      -0.581000
      7 CAH          3.5400    -0.0000     1.2770 ca         1 F70      -0.114600
      8 CAK          4.3010     0.0050     0.1060 ca         1 F70      -0.054000
      9 CAL          5.6750     0.0030     0.1780 ca         1 F70      -0.096500
     10 CAI          4.1740     0.0010     2.5220 ca         1 F70      -0.054000
     11 CAJ          5.5500    -0.0000     2.5940 ca         1 F70      -0.096500
     12 CAM          6.3100    -0.0010     1.4220 ca         1 F70      -0.037800
     13 CAN          7.7850    -0.0030     1.4990 cc         1 F70       0.199900
     14 OAO          8.4900     0.0010     0.3580 os         1 F70      -0.182200
     15 CAP          9.8400     0.0000     0.3430 ca         1 F70       0.204100
     16 CAQ         10.5390     0.0050    -0.8580 ca         1 F70      -0.181000
     17 CAR         11.9180     0.0050    -0.8500 ca         1 F70      -0.087000
     18 CAS         12.6200     0.0010     0.3460 ca         1 F70      -0.113000
     19 CAT         11.9440    -0.0040     1.5480 ca         1 F70      -0.013000
     20 CAU         10.5520    -0.0040     1.5530 ca         1 F70      -0.270600
     21 CAV          9.7890    -0.0090     2.8180 c          1 F70       0.652900
     22 OAW         10.3530    -0.0130     3.8980 o          1 F70      -0.570100
     23 CAX          8.3750    -0.0030     2.7240 cd         1 F70      -0.338200
     24 H1          -0.0890     1.0030     0.3980 h1         1 F70       0.038200
     25 H2          -0.2320    -0.6890     0.8030 h1         1 F70       0.038200
     26 H3           3.9460    -0.1580    -0.9050 ha         1 F70       0.127000
     27 H4           6.1030     0.0190    -0.8170 ha         1 F70       0.129500
     28 H5           3.7290    -0.4910     3.3790 ha         1 F70       0.127000
     29 H6           6.0520    -0.1000     3.5490 ha         1 F70       0.129500
     30 H7          10.5680    -0.1570    -1.9280 ha         1 F70       0.153000
     31 H8          12.4060    -0.0750    -1.8140 ha         1 F70       0.105000
     32 H9          13.6980     0.0370     0.2460 ha         1 F70       0.109000
     33 H10         12.1640     0.3020     2.5630 ha         1 F70       0.145000
     34 H11          7.7060     0.6550     3.2660 ha         1 F70       0.148000
@<TRIPOS>BOND
     1     1     2 3   
     2     2     3 1   
     3     3     4 1   
     4     3    24 1   
     5     3    25 1   
     6     4     5 1   
     7     5     6 2   
     8     5     7 1   
     9     7     8 ar  
    10     7    10 ar  
    11     8     9 ar  
    12     8    26 1   
    13     9    12 ar  
    14     9    27 1   
    15    10    11 ar  
    16    10    28 1   
    17    11    12 ar  
    18    11    29 1   
    19    12    13 1   
    20    13    14 1   
    21    13    23 2   
    22    14    15 1   
    23    15    16 ar  
    24    15    20 ar  
    25    16    17 ar  
    26    16    30 1   
    27    17    18 ar  
    28    17    31 1   
    29    18    19 ar  
    30    18    32 1   
    31    19    20 ar  
    32    19    33 1   
    33    20    21 1   
    34    21    22 2   
    35    21    23 1   
    36    23    34 1   
@<TRIPOS>SUBSTRUCTURE
     1 F70         1 TEMP              0 ****  ****    0 ROOT
