@<TRIPOS>MOLECULE
F71
   73    74     1     0     0
SMALL
bcc


@<TRIPOS>ATOM
      1 C21        -0.3910    0.1760    0.2750 c2        1 F71      0.431000
      2 O22         0.6690    0.8320    0.3170 o         1 F71     -0.343000
      3 C22        -1.0810   -0.2370    1.4630 c1        1 F71     -0.234000
      4 C27         1.4880    1.4040    3.4170 c1        1 F71     -0.214000
      5 C26         1.3750    1.3440    4.6040 c1        1 F71     -0.115000
      6 C25        -1.7330   -0.6000    4.9040 c2        1 F71     -0.143000
      7 C24        -2.2260   -0.9130    3.7000 c2        1 F71     -0.110000
      8 C23        -1.6080   -0.5470    2.4940 c1        1 F71     -0.009000
      9 O27         1.1770    1.2160    5.9120 oh        1 F71     -0.166000
     10 N11        -0.5990    1.9600   -5.4210 n3        1 F71     -0.823000
     11 C12        -1.0310    0.8540   -6.2360 c3        1 F71     -0.008000
     12 C13        -0.0640    0.4230   -7.3560 c3        1 F71     -0.137000
     13 C14         1.2530   -0.0620   -6.7940 c3        1 F71     -0.207000
     14 C15        -0.7420   -0.6670   -8.1770 c3        1 F71     -0.152000
     15 C17        -1.0280    1.1010   -3.0890 c3        1 F71      0.007000
     16 C18        -0.1080   -0.8350   -9.5340 c3        1 F71     -0.211000
     17 O18        -1.4290    2.2550   -2.3700 oh        1 F71     -0.332000
     18 C19        -0.3300    0.0290   -2.1970 c3        1 F71     -0.010000
     19 N20        -0.9990   -0.1600   -0.9300 n         1 F71     -0.375000
     20 C32        -0.2620   -1.2820   -3.0130 c3        1 F71     -0.129000
     21 C33        -0.0640   -3.3600   -1.4550 c3        1 F71     -0.107000
     22 C34         0.5510   -4.7030   -1.7610 c2        1 F71     -0.154000
     23 C35         1.7790   -4.8550   -2.3060 c2        1 F71     -0.141000
     24 C36         2.6090   -3.6430   -2.4220 c2        1 F71     -0.082000
     25 C37         1.8440   -2.5650   -2.5510 c1        1 F71     -0.155000
     26 C38         0.5550   -2.3110   -2.3460 c2        1 F71     -0.082000
     27 C1         -8.0760    5.5250   -5.1410 c2        1 F71     -0.159000
     28 N1         -7.9040    4.7610   -6.2310 n2        1 F71     -0.027000
     29 O1         -6.6340    4.4150   -6.3230 os        1 F71     -0.104000
     30 S1         -3.6190    3.9160   -6.2630 ss        1 F71      1.268000
     31 C2         -4.5080    4.7120   -5.1540 c2        1 F71     -0.581000
     32 C3         -5.9020    4.9770   -5.2340 c2        1 F71      0.063000
     33 C4         -6.7970    5.6930   -4.4590 c2        1 F71     -0.194000
     34 C5         -2.2460    3.9780   -5.5690 c2        1 F71     -1.400000
     35 C6         -2.3450    4.7200   -4.2430 c3        1 F71     -0.165000
     36 C7         -3.7340    5.1430   -4.0580 c1        1 F71     -0.042000
     37 S8         -0.6980    3.4970   -5.9700 s6        1 F71      2.889000
     38 O9         -0.6260    3.4980   -7.3820 o         1 F71     -0.929500
     39 O10         0.2300    4.3160   -5.3010 o         1 F71     -0.929500
     40 H27         1.5590    1.4420    2.3550 ha        1 F71      0.265000
     41 H25        -0.8010   -0.0290    5.0440 ha        1 F71      0.135000
     42 H24        -2.2440   -0.9020    5.8280 ha        1 F71      0.135000
     43 H23        -3.1660   -1.4860    3.5920 ha        1 F71      0.141000
     44 HO27        1.8550    1.7730    6.3410 ho        1 F71      0.228000
     45 H12        -1.2300   -0.0430   -5.5810 h1        1 F71      0.078500
     46 H12A       -2.0110    1.1450   -6.7200 h1        1 F71      0.078500
     47 H13         1.0910   -0.8730   -6.0430 hc        1 F71      0.076667
     48 H14         0.1280    1.3110   -8.0260 hc        1 F71      0.127000
     49 H14A        1.8960   -0.4670   -7.6140 hc        1 F71      0.076667
     50 H14B        1.8060    0.7740   -6.3020 hc        1 F71      0.076667
     51 H15        -0.6990   -1.6370   -7.6160 hc        1 F71      0.075000
     52 H15A       -1.8270   -0.4110   -8.3150 hc        1 F71      0.075000
     53 H16         0.7910    0.8740   -4.2920 h1        1 F71      0.123000
     54 H16A        0.4510    2.5710   -3.7120 h1        1 F71      0.123000
     55 H17        -1.9350    0.6360   -3.5680 h1        1 F71      0.073000
     56 H18         0.9610   -1.1430   -9.4410 hc        1 F71      0.077000
     57 H18A       -0.1480    0.1210  -10.1100 hc        1 F71      0.077000
     58 H18B       -0.6500   -1.6200  -10.1160 hc        1 F71      0.077000
     59 HO18       -1.9690    1.9800   -1.6200 ho        1 F71      0.218000
     60 H19        -1.7420   -0.8190   -0.9120 hn        1 F71      0.222000
     61 HN20        0.7230    0.3900   -1.9860 h1        1 F71      0.149000
     62 H32        -1.3000   -1.6710   -3.1930 hc        1 F71      0.099000
     63 H32A        0.1850   -1.0460   -4.0170 hc        1 F71      0.099000
     64 H33        -1.1650   -3.3950   -1.6680 hc        1 F71      0.109000
     65 H34         0.0680   -3.1430   -0.3610 hc        1 F71      0.109000
     66 H35        -0.0650   -5.5690   -1.4810 ha        1 F71      0.135000
     67 H36         2.2160   -5.8290   -2.5550 ha        1 F71      0.143000
     68 H37         3.6920   -3.6880   -2.2810 ha        1 F71      0.162000
     69 H4         -6.6020    6.2530   -3.5500 ha        1 F71      0.191000
     70 H6         -2.0350    4.0540   -3.3820 hc        1 F71      0.197000
     71 H7         -1.6490    5.6080   -4.2220 hc        1 F71      0.197000
     72 C16        -0.0250    1.6380   -4.1430 c3        1 F71     -0.024000
     73 H1         -9.0400    5.9400   -4.8440 h4        1 F71      0.189000
@<TRIPOS>BOND
     1    1    2 1   
     2    1    3 1   
     3    1   19 1   
     4    3    8 1   
     5    4    5 1   
     6    4   40 1   
     7    5    9 1   
     8    6    7 1   
     9    6   41 1   
    10    6   42 1   
    11    7    8 1   
    12    7   43 1   
    13    9   44 1   
    14   10   11 1   
    15   10   37 1   
    16   10   72 1   
    17   11   12 1   
    18   11   45 1   
    19   11   46 1   
    20   12   13 1   
    21   12   14 1   
    22   12   48 1   
    23   13   47 1   
    24   13   49 1   
    25   13   50 1   
    26   14   16 1   
    27   14   51 1   
    28   14   52 1   
    29   15   17 1   
    30   15   18 1   
    31   15   55 1   
    32   15   72 1   
    33   16   56 1   
    34   16   57 1   
    35   16   58 1   
    36   17   59 1   
    37   18   19 1   
    38   18   20 1   
    39   18   61 1   
    40   19   60 1   
    41   20   26 1   
    42   20   62 1   
    43   20   63 1   
    44   21   22 1   
    45   21   26 1   
    46   21   64 1   
    47   21   65 1   
    48   22   23 1   
    49   22   66 1   
    50   23   24 1   
    51   23   67 1   
    52   24   25 1   
    53   24   68 1   
    54   25   26 1   
    55   27   28 1   
    56   27   33 1   
    57   27   73 1   
    58   28   29 1   
    59   29   32 1   
    60   30   31 1   
    61   30   34 1   
    62   31   32 1   
    63   31   36 1   
    64   32   33 1   
    65   33   69 1   
    66   34   35 1   
    67   34   37 1   
    68   35   36 1   
    69   35   70 1   
    70   35   71 1   
    71   37   38 1   
    72   37   39 1   
    73   53   72 1   
    74   54   72 1   
@<TRIPOS>SUBSTRUCTURE
     1 F71         1 TEMP              0 ****  ****    0 ROOT
