@<TRIPOS>MOLECULE
F72
   76    80     1     0     0
SMALL
bcc


@<TRIPOS>ATOM
      1 C21          0.0000     0.0000     0.0000 c          1 F72       0.594700
      2 O22          1.2160     0.0000     0.0000 o          1 F72      -0.628100
      3 C22         -0.7390     0.0000     1.2800 ca         1 F72      -0.134600
      4 C27         -0.0440    -0.0050     2.4900 ca         1 F72      -0.066000
      5 C26         -0.7430     0.0020     3.6850 ca         1 F72       0.117100
      6 C25         -2.1310     0.0000     3.6790 ca         1 F72      -0.127000
      7 C24         -2.8210    -0.0010     2.4810 ca         1 F72      -0.088000
      8 C23         -2.1350    -0.0000     1.2840 ca         1 F72      -0.108000
      9 O27         -0.0690     0.0030     4.8650 oh         1 F72      -0.496100
     10 C11          0.8190    -1.3860    -8.7170 c3         1 F72      -0.021900
     11 N11         -0.8120     1.4140    -5.8400 n3         1 F72      -0.515500
     12 C12         -1.7380     0.6560    -6.6860 c3         1 F72       0.233800
     13 C13         -0.9940     0.1380    -7.9180 c3         1 F72      -0.077700
     14 C14         -1.9850    -0.5480    -8.8610 c3         1 F72      -0.027400
     15 C15          0.0750    -0.8680    -7.4840 c3         1 F72      -0.027400
     16 C17         -0.8190     0.6080    -3.5310 c3         1 F72       0.144100
     17 C18         -0.1730    -2.0720    -9.6600 c3         1 F72      -0.025400
     18 O18         -1.9560    -0.2280    -3.7510 oh         1 F72      -0.579800
     19 C19          0.0580    -0.0010    -2.4360 c3         1 F72      -0.000300
     20 C20         -1.2410    -1.0660   -10.0950 c3         1 F72      -0.021900
     21 N20         -0.6740    -0.0010    -1.1670 ns         1 F72      -0.198900
     22 C32          0.4220    -1.4380    -2.8150 c3         1 F72       0.014900
     23 C33          0.9060    -2.6570    -0.6830 ca         1 F72      -0.093000
     24 C34          1.7890    -3.1690     0.2490 ca         1 F72      -0.090500
     25 C35          3.1510    -3.0200     0.0660 ca         1 F72      -0.098000
     26 C36          3.6300    -2.3600    -1.0500 ca         1 F72      -0.090500
     27 C37          2.7480    -1.8470    -1.9820 ca         1 F72      -0.093000
     28 C38          1.3850    -1.9960    -1.7990 ca         1 F72      -0.082300
     29 C1          -3.9530     5.7870    -1.1910 cc         1 F72       0.436100
     30 N1          -4.4880     5.5730    -2.3330 nd         1 F72      -0.456100
     31 S1          -2.3280     5.2650    -1.1530 ss         1 F72      -0.185100
     32 C2          -3.7300     4.9980    -3.2850 ca         1 F72       0.111400
     33 C3          -2.4360     4.7280    -2.8280 ca         1 F72      -0.068100
     34 C4          -1.5010     4.1320    -3.6720 ca         1 F72       0.064000
     35 C5          -1.8510     3.8070    -4.9630 ca         1 F72      -0.158500
     36 C6          -3.1340     4.0720    -5.4230 ca         1 F72      -0.009000
     37 C7          -4.0600     4.6520    -4.6110 ca         1 F72      -0.070000
     38 S8          -0.6700     3.0530    -6.0310 sy         1 F72       1.048200
     39 O9          -1.0900     3.3400    -7.3590 o          1 F72      -0.582300
     40 O10          0.6100     3.4060    -5.5270 o          1 F72      -0.582300
     41 H27          1.0400    -0.0040     2.4940 ha         1 F72       0.141000
     42 H25         -2.6760     0.0030     4.6150 ha         1 F72       0.113000
     43 H24         -3.9050    -0.0010     2.4820 ha         1 F72       0.105000
     44 H23         -2.6790    -0.0010     0.3470 ha         1 F72       0.099000
     45 HO27        -0.0780     0.8720     5.2320 ho         1 F72       0.404000
     46 H11          1.5740    -2.0980    -8.4080 hc         1 F72       0.014200
     47 H11A         1.2870    -0.5550    -9.2300 hc         1 F72       0.014200
     48 H12         -2.5510     1.2990    -6.9990 h1         1 F72       0.027700
     49 H12A        -2.1350    -0.1820    -6.1260 h1         1 F72       0.027700
     50 H13         -0.5210     0.9640    -8.4340 hc         1 F72       0.052700
     51 H14         -2.4540    -1.3800    -8.3480 hc         1 F72       0.017200
     52 H14A        -2.7410     0.1640    -9.1690 hc         1 F72       0.017200
     53 H15          0.7770    -0.3810    -6.8180 hc         1 F72       0.017200
     54 H15A        -0.3990    -1.6980    -6.9750 hc         1 F72       0.017200
     55 H16          0.8950     1.2850    -4.6380 h1         1 F72       0.057700
     56 H16A         0.2440    -0.2680    -5.1810 h1         1 F72       0.057700
     57 H17         -1.1500     1.5920    -3.2230 h1         1 F72       0.006700
     58 H18         -0.6460    -2.8990    -9.1440 hc         1 F72       0.012200
     59 H18A         0.3540    -2.4370   -10.5330 hc         1 F72       0.012200
     60 HO18        -2.7040     0.1330    -3.3040 ho         1 F72       0.387000
     61 H19          0.9630     0.5850    -2.3310 h1         1 F72       0.069700
     62 H20         -0.7680    -0.2360   -10.6040 hc         1 F72       0.014200
     63 H20A        -1.9440    -1.5530   -10.7610 hc         1 F72       0.014200
     64 HN20        -1.6740     0.0370    -1.1660 hn         1 F72       0.174500
     65 H32          0.8850    -1.4470    -3.7940 hc         1 F72       0.031200
     66 H32A        -0.4750    -2.0450    -2.8340 hc         1 F72       0.031200
     67 H33         -0.1610    -2.7730    -0.5390 ha         1 F72       0.099000
     68 H34          1.4140    -3.6860     1.1240 ha         1 F72       0.099000
     69 H35          3.8430    -3.4220     0.7960 ha         1 F72       0.099000
     70 H36          4.6970    -2.2430    -1.1930 ha         1 F72       0.099000
     71 H37          3.1230    -1.3290    -2.8560 ha         1 F72       0.099000
     72 H4          -0.5000     3.9250    -3.3130 ha         1 F72       0.133000
     73 H6          -3.4010     3.8130    -6.4410 ha         1 F72       0.129000
     74 H7          -5.0560     4.8510    -4.9880 ha         1 F72       0.121000
     75 C16         -0.0120     0.7230    -4.8260 c3         1 F72       0.189800
     76 H1          -4.4670     6.2420    -0.3520 h5         1 F72       0.032800
@<TRIPOS>BOND
     1     1     2 2   
     2     1     3 1   
     3     1    21 1   
     4     3     4 ar  
     5     3     8 ar  
     6     4     5 ar  
     7     4    41 1   
     8     5     6 ar  
     9     5     9 1   
    10     6     7 ar  
    11     6    42 1   
    12     7     8 ar  
    13     7    43 1   
    14     8    44 1   
    15     9    45 1   
    16    10    15 1   
    17    10    17 1   
    18    10    46 1   
    19    10    47 1   
    20    11    12 1   
    21    11    38 1   
    22    11    75 1   
    23    12    13 1   
    24    12    48 1   
    25    12    49 1   
    26    13    14 1   
    27    13    15 1   
    28    13    50 1   
    29    14    20 1   
    30    14    51 1   
    31    14    52 1   
    32    15    53 1   
    33    15    54 1   
    34    16    18 1   
    35    16    19 1   
    36    16    57 1   
    37    16    75 1   
    38    17    20 1   
    39    17    58 1   
    40    17    59 1   
    41    18    60 1   
    42    19    21 1   
    43    19    22 1   
    44    19    61 1   
    45    20    62 1   
    46    20    63 1   
    47    21    64 1   
    48    22    28 1   
    49    22    65 1   
    50    22    66 1   
    51    23    24 ar  
    52    23    28 ar  
    53    23    67 1   
    54    24    25 ar  
    55    24    68 1   
    56    25    26 ar  
    57    25    69 1   
    58    26    27 ar  
    59    26    70 1   
    60    27    28 ar  
    61    27    71 1   
    62    29    30 2   
    63    29    31 1   
    64    29    76 1   
    65    30    32 1   
    66    31    33 1   
    67    32    33 ar  
    68    32    37 ar  
    69    33    34 ar  
    70    34    35 ar  
    71    34    72 1   
    72    35    36 ar  
    73    35    38 1   
    74    36    37 ar  
    75    36    73 1   
    76    37    74 1   
    77    38    39 2   
    78    38    40 2   
    79    55    75 1   
    80    56    75 1   
@<TRIPOS>SUBSTRUCTURE
     1 F72         1 TEMP              0 ****  ****    0 ROOT
