@<TRIPOS>MOLECULE
molecule
   76    80     1     0     0
SMALL
bcc


@<TRIPOS>ATOM
      1 C21          0.0000     0.0000     0.0000 c          1 F72       0.671700
      2 O22          1.2160     0.0000     0.0000 o          1 F72      -0.586100
      3 C22         -0.7390     0.0000     1.2800 ca         1 F72      -0.131600
      4 C27         -0.0440    -0.0050     2.4900 ca         1 F72      -0.086000
      5 C26         -0.7430     0.0020     3.6850 ca         1 F72       0.098100
      6 C25         -2.1310     0.0000     3.6790 ca         1 F72      -0.142000
      7 C24         -2.8210    -0.0010     2.4810 ca         1 F72      -0.123000
      8 C23         -2.1350    -0.0000     1.2840 ca         1 F72      -0.121000
      9 O27         -0.0690     0.0030     4.8650 oh         1 F72      -0.516100
     10 C11          0.8190    -1.3860    -8.7170 c3         1 F72      -0.078400
     11 N11         -0.8120     1.4140    -5.8400 n3         1 F72      -0.809500
     12 C12         -1.7380     0.6560    -6.6860 c3         1 F72       0.238800
     13 C13         -0.9940     0.1380    -7.9180 c3         1 F72      -0.089700
     14 C14         -1.9850    -0.5480    -8.8610 c3         1 F72      -0.076400
     15 C15          0.0750    -0.8680    -7.4840 c3         1 F72      -0.076400
     16 C17         -0.8190     0.6080    -3.5310 c3         1 F72       0.105100
     17 C18         -0.1730    -2.0720    -9.6600 c3         1 F72      -0.080400
     18 O18         -1.9560    -0.2280    -3.7510 oh         1 F72      -0.598800
     19 C19          0.0580    -0.0010    -2.4360 c3         1 F72       0.102700
     20 C20         -1.2410    -1.0660   -10.0950 c3         1 F72      -0.078400
     21 N20         -0.6740    -0.0010    -1.1670 ns         1 F72      -0.582900
     22 C32          0.4220    -1.4380    -2.8150 c3         1 F72      -0.044100
     23 C33          0.9060    -2.6570    -0.6830 ca         1 F72      -0.117500
     24 C34          1.7890    -3.1690     0.2490 ca         1 F72      -0.119500
     25 C35          3.1510    -3.0200     0.0660 ca         1 F72      -0.125000
     26 C36          3.6300    -2.3600    -1.0500 ca         1 F72      -0.119500
     27 C37          2.7480    -1.8470    -1.9820 ca         1 F72      -0.117500
     28 C38          1.3850    -1.9960    -1.7990 ca         1 F72      -0.073300
     29 C1          -3.9530     5.7870    -1.1910 cc         1 F72       0.419100
     30 N1          -4.4880     5.5730    -2.3330 nd         1 F72      -0.583100
     31 S1          -2.3280     5.2650    -1.1530 ss         1 F72      -0.086100
     32 C2          -3.7300     4.9980    -3.2850 ca         1 F72       0.162400
     33 C3          -2.4360     4.7280    -2.8280 ca         1 F72      -0.093100
     34 C4          -1.5010     4.1320    -3.6720 ca         1 F72       0.022000
     35 C5          -1.8510     3.8070    -4.9630 ca         1 F72      -0.311500
     36 C6          -3.1340     4.0720    -5.4230 ca         1 F72      -0.043000
     37 C7          -4.0600     4.6520    -4.6110 ca         1 F72      -0.092000
     38 S8          -0.6700     3.0530    -6.0310 sy         1 F72       1.420200
     39 O9          -1.0900     3.3400    -7.3590 o          1 F72      -0.629800
     40 O10          0.6100     3.4060    -5.5270 o          1 F72      -0.629800
     41 H27          1.0400    -0.0040     2.4940 ha         1 F72       0.172000
     42 H25         -2.6760     0.0030     4.6150 ha         1 F72       0.142000
     43 H24         -3.9050    -0.0010     2.4820 ha         1 F72       0.135000
     44 H23         -2.6790    -0.0010     0.3470 ha         1 F72       0.123000
     45 HO27        -0.0780     0.8720     5.2320 ho         1 F72       0.421000
     46 H11          1.5740    -2.0980    -8.4080 hc         1 F72       0.042700
     47 H11A         1.2870    -0.5550    -9.2300 hc         1 F72       0.042700
     48 H12         -2.5510     1.2990    -6.9990 h1         1 F72       0.061200
     49 H12A        -2.1350    -0.1820    -6.1260 h1         1 F72       0.061200
     50 H13         -0.5210     0.9640    -8.4340 hc         1 F72       0.069700
     51 H14         -2.4540    -1.3800    -8.3480 hc         1 F72       0.041950
     52 H14A        -2.7410     0.1640    -9.1690 hc         1 F72       0.041950
     53 H15          0.7770    -0.3810    -6.8180 hc         1 F72       0.041950
     54 H15A        -0.3990    -1.6980    -6.9750 hc         1 F72       0.041950
     55 H16          0.8950     1.2850    -4.6380 h1         1 F72       0.085200
     56 H16A         0.2440    -0.2680    -5.1810 h1         1 F72       0.085200
     57 H17         -1.1500     1.5920    -3.2230 h1         1 F72       0.037700
     58 H18         -0.6460    -2.8990    -9.1440 hc         1 F72       0.040700
     59 H18A         0.3540    -2.4370   -10.5330 hc         1 F72       0.040700
     60 HO18        -2.7040     0.1330    -3.3040 ho         1 F72       0.401000
     61 H19          0.9630     0.5850    -2.3310 h1         1 F72       0.090700
     62 H20         -0.7680    -0.2360   -10.6040 hc         1 F72       0.042700
     63 H20A        -1.9440    -1.5530   -10.7610 hc         1 F72       0.042700
     64 HN20        -1.6740     0.0370    -1.1660 hn         1 F72       0.309500
     65 H32          0.8850    -1.4470    -3.7940 hc         1 F72       0.059200
     66 H32A        -0.4750    -2.0450    -2.8340 hc         1 F72       0.059200
     67 H33         -0.1610    -2.7730    -0.5390 ha         1 F72       0.123000
     68 H34          1.4140    -3.6860     1.1240 ha         1 F72       0.126000
     69 H35          3.8430    -3.4220     0.7960 ha         1 F72       0.125000
     70 H36          4.6970    -2.2430    -1.1930 ha         1 F72       0.126000
     71 H37          3.1230    -1.3290    -2.8560 ha         1 F72       0.123000
     72 H4          -0.5000     3.9250    -3.3130 ha         1 F72       0.158000
     73 H6          -3.4010     3.8130    -6.4410 ha         1 F72       0.158000
     74 H7          -5.0560     4.8510    -4.9880 ha         1 F72       0.154000
     75 C16         -0.0120     0.7230    -4.8260 c3         1 F72       0.220800
     76 H1          -4.4670     6.2420    -0.3520 h5         1 F72       0.073800
@<TRIPOS>BOND
     1    29    30 2
     2    29    31 1
     3    30    32 1
     4    31    33 1
     5    32    33 ar
     6    32    37 ar
     7    33    34 ar
     8    34    35 ar
     9    35    36 ar
    10    35    38 1
    11    36    37 ar
    12    38    39 2
    13    38    40 2
    14    38    11 1
    15    10    15 1
    16    10    17 1
    17    11    12 1
    18    11    75 1
    19    12    13 1
    20    13    14 1
    21    13    15 1
    22    14    20 1
    23    75    16 1
    24    16    18 1
    25    16    19 1
    26    17    20 1
    27    19    21 1
    28    19    22 1
    29    21     1 1
    30     1     3 1
    31     1     2 2
    32     3     8 ar
    33     3     4 ar
    34     8     7 ar
    35     7     6 ar
    36     6     5 ar
    37     5     4 ar
    38     5     9 1
    39    22    28 1
    40    23    24 ar
    41    23    28 ar
    42    24    25 ar
    43    25    26 ar
    44    26    27 ar
    45    27    28 ar
    46    29    76 1
    47    34    72 1
    48    36    73 1
    49    37    74 1
    50    10    46 1
    51    10    47 1
    52    12    48 1
    53    12    49 1
    54    13    50 1
    55    14    51 1
    56    14    52 1
    57    15    53 1
    58    15    54 1
    59    75    55 1
    60    75    56 1
    61    16    57 1
    62    17    58 1
    63    17    59 1
    64    18    60 1
    65    19    61 1
    66    20    62 1
    67    20    63 1
    68    21    64 1
    69     8    44 1
    70     7    43 1
    71     6    42 1
    72     4    41 1
    73     9    45 1
    74    22    65 1
    75    22    66 1
    76    23    67 1
    77    24    68 1
    78    25    69 1
    79    26    70 1
    80    27    71 1
@<TRIPOS>SUBSTRUCTURE
     1 F72         1 TEMP              0 ****  ****    0 ROOT
