@<TRIPOS>MOLECULE
F76
   56    59     1     0     0
SMALL
bcc


@<TRIPOS>ATOM
      1 N01          0.0000     0.0000     0.0000 nb         1 F76      -0.539000
      2 C02          1.3300     0.0000     0.0000 ca         1 F76       0.369600
      3 C03          2.0610     0.0000     1.2030 ca         1 F76      -0.127300
      4 C04          3.4210     0.0050     1.1670 ca         1 F76      -0.095000
      5 C05          4.1080     0.0100    -0.0460 ca         1 F76      -0.075000
      6 C06          3.4350     0.0100    -1.2310 ca         1 F76      -0.102000
      7 C07          2.0340     0.0020    -1.2310 ca         1 F76      -0.109300
      8 C08          1.2910    -0.0060    -2.4350 ca         1 F76      -0.105600
      9 C09          1.9730    -0.0070    -3.7460 c          1 F76       0.730700
     10 O10          2.2570    -1.0600    -4.2800 o          1 F76      -0.568000
     11 O11          2.2790     1.1580    -4.3470 os         1 F76      -0.376900
     12 C12          2.9490     1.0800    -5.6340 c3         1 F76       0.159400
     13 C13          3.2090     2.4720    -6.1500 c          1 F76       0.556100
     14 O14          2.8640     3.4350    -5.4970 o          1 F76      -0.592100
     15 N15          3.8240     2.6470    -7.3360 ns         1 F76      -0.041100
     16 C16          3.9800     3.9350    -7.8600 ca         1 F76       0.020600
     17 C17          4.2090     5.0090    -7.0110 ca         1 F76      -0.138000
     18 C18          4.3630     6.2790    -7.5320 ca         1 F76       0.035000
     19 C19          4.2880     6.4810    -8.8970 ca         1 F76      -0.252500
     20 S20          4.4770     8.1030    -9.5570 sy         1 F76       0.935200
     21 O21          5.2170     8.8440    -8.5970 o          1 F76      -0.497800
     22 O22          4.8960     7.9420   -10.9060 o          1 F76      -0.497800
     23 N23          2.9690     8.7880    -9.6160 nz         1 F76      -0.130500
     24 C24          4.0600     5.4130    -9.7460 ca         1 F76       0.035000
     25 C25          3.9120     4.1400    -9.2320 ca         1 F76      -0.138000
     26 C26         -0.1040    -0.0100    -2.3530 ca         1 F76      -0.132600
     27 C27         -0.8620    -0.0620    -3.6560 c3         1 F76       0.024900
     28 C28         -2.2270     0.6150    -3.5350 c3         1 F76      -0.043400
     29 C29         -3.2580    -0.4420    -3.1380 c3         1 F76      -0.029400
     30 C30         -2.8830    -1.0500    -1.7900 c3         1 F76      -0.024400
     31 C31         -2.2140     0.0420    -0.9500 c3         1 F76      -0.087700
     32 C32         -0.7150     0.0060    -1.1110 ca         1 F76       0.386600
     33 H1           1.5430    -0.0040     2.1540 ha         1 F76       0.122000
     34 H2           3.9790     0.0050     2.0950 ha         1 F76       0.109000
     35 H3           5.1920     0.0130    -0.0470 ha         1 F76       0.105000
     36 H4           3.9790     0.0130    -2.1680 ha         1 F76       0.105000
     37 H5           2.3200     0.5470    -6.3370 h1         1 F76       0.032700
     38 H6           3.8890     0.5550    -5.5210 h1         1 F76       0.032700
     39 H7           4.1900     1.8570    -7.8310 hn         1 F76       0.189500
     40 H8           4.2680     4.8510    -5.9410 ha         1 F76       0.152500
     41 H9           4.5410     7.1180    -6.8700 ha         1 F76       0.126000
     42 H10          2.3740     8.2350   -10.2000 hn         1 F76       0.313133
     43 H11          3.0370     9.7130    -9.9900 hn         1 F76       0.313133
     44 H12          4.0050     5.5740   -10.8160 ha         1 F76       0.126000
     45 H13          3.7340     3.3040    -9.8980 ha         1 F76       0.152500
     46 H14         -0.2840     0.4430    -4.4200 hc         1 F76       0.026700
     47 H15         -1.0060    -1.0970    -3.9390 hc         1 F76       0.026700
     48 H16         -2.5020     1.0520    -4.4880 hc         1 F76       0.026200
     49 H17         -2.1850     1.3850    -2.7740 hc         1 F76       0.026200
     50 H18         -3.2790    -1.2220    -3.8900 hc         1 F76       0.016700
     51 H19         -4.2350     0.0200    -3.0640 hc         1 F76       0.016700
     52 H20         -2.1920    -1.8700    -1.9400 hc         1 F76       0.023700
     53 H21         -3.7750    -1.4020    -1.2880 hc         1 F76       0.023700
     54 H22         -2.5820     1.0100    -1.2690 hc         1 F76       0.038700
     55 H23         -2.4620    -0.1120     0.0930 hc         1 F76       0.038700
     56 H233         2.5870     8.8320    -8.6920 hn         1 F76       0.313133
@<TRIPOS>BOND
     1     1     2 ar  
     2     1    32 ar  
     3     2     3 ar  
     4     2     7 ar  
     5     3     4 ar  
     6     3    33 1   
     7     4     5 ar  
     8     4    34 1   
     9     5     6 ar  
    10     5    35 1   
    11     6     7 ar  
    12     6    36 1   
    13     7     8 ar  
    14     8     9 1   
    15     8    26 ar  
    16     9    10 2   
    17     9    11 1   
    18    11    12 1   
    19    12    13 1   
    20    12    37 1   
    21    12    38 1   
    22    13    14 2   
    23    13    15 1   
    24    15    16 1   
    25    15    39 1   
    26    16    17 ar  
    27    16    25 ar  
    28    17    18 ar  
    29    17    40 1   
    30    18    19 ar  
    31    18    41 1   
    32    19    20 1   
    33    19    24 ar  
    34    20    21 2   
    35    20    22 2   
    36    20    23 1   
    37    23    42 1   
    38    23    43 1   
    39    23    56 1   
    40    24    25 ar  
    41    24    44 1   
    42    25    45 1   
    43    26    27 1   
    44    26    32 ar  
    45    27    28 1   
    46    27    46 1   
    47    27    47 1   
    48    28    29 1   
    49    28    48 1   
    50    28    49 1   
    51    29    30 1   
    52    29    50 1   
    53    29    51 1   
    54    30    31 1   
    55    30    52 1   
    56    30    53 1   
    57    31    32 1   
    58    31    54 1   
    59    31    55 1   
@<TRIPOS>SUBSTRUCTURE
     1 F76         1 TEMP              0 ****  ****    0 ROOT
