@<TRIPOS>MOLECULE
molecule
   56    59     1     0     0
SMALL
bcc


@<TRIPOS>ATOM
      1 N01          0.0000     0.0000     0.0000 nb         1 F76      -0.665000
      2 C02          1.3300     0.0000     0.0000 ca         1 F76       0.423600
      3 C03          2.0610     0.0000     1.2030 ca         1 F76      -0.153300
      4 C04          3.4210     0.0050     1.1670 ca         1 F76      -0.119000
      5 C05          4.1080     0.0100    -0.0460 ca         1 F76      -0.108000
      6 C06          3.4350     0.0100    -1.2310 ca         1 F76      -0.123000
      7 C07          2.0340     0.0020    -1.2310 ca         1 F76      -0.121300
      8 C08          1.2910    -0.0060    -2.4350 ca         1 F76      -0.081600
      9 C09          1.9730    -0.0070    -3.7460 c          1 F76       0.657700
     10 O10          2.2570    -1.0600    -4.2800 o          1 F76      -0.524000
     11 O11          2.2790     1.1580    -4.3470 os         1 F76      -0.394900
     12 C12          2.9490     1.0800    -5.6340 c3         1 F76       0.078400
     13 C13          3.2090     2.4720    -6.1500 c          1 F76       0.658100
     14 O14          2.8640     3.4350    -5.4970 o          1 F76      -0.550100
     15 N15          3.8240     2.6470    -7.3360 ns         1 F76      -0.482100
     16 C16          3.9800     3.9350    -7.8600 ca         1 F76       0.165600
     17 C17          4.2090     5.0090    -7.0110 ca         1 F76      -0.155000
     18 C18          4.3630     6.2790    -7.5320 ca         1 F76      -0.009500
     19 C19          4.2880     6.4810    -8.8970 ca         1 F76      -0.366500
     20 S20          4.4770     8.1030    -9.5570 sy         1 F76       1.226200
     21 O21          5.2170     8.8440    -8.5970 o          1 F76      -0.521300
     22 O22          4.8960     7.9420   -10.9060 o          1 F76      -0.521300
     23 N23          2.9690     8.7880    -9.6160 nz         1 F76      -0.805500
     24 C24          4.0600     5.4130    -9.7460 ca         1 F76      -0.009500
     25 C25          3.9120     4.1400    -9.2320 ca         1 F76      -0.155000
     26 C26         -0.1040    -0.0100    -2.3530 ca         1 F76      -0.140600
     27 C27         -0.8620    -0.0620    -3.6560 c3         1 F76      -0.039100
     28 C28         -2.2270     0.6150    -3.5350 c3         1 F76      -0.086400
     29 C29         -3.2580    -0.4420    -3.1380 c3         1 F76      -0.086400
     30 C30         -2.8830    -1.0500    -1.7900 c3         1 F76      -0.079400
     31 C31         -2.2140     0.0420    -0.9500 c3         1 F76      -0.133700
     32 C32         -0.7150     0.0060    -1.1110 ca         1 F76       0.447600
     33 H1           1.5430    -0.0040     2.1540 ha         1 F76       0.156000
     34 H2           3.9790     0.0050     2.0950 ha         1 F76       0.141000
     35 H3           5.1920     0.0130    -0.0470 ha         1 F76       0.136000
     36 H4           3.9790     0.0130    -2.1680 ha         1 F76       0.130000
     37 H5           2.3200     0.5470    -6.3370 h1         1 F76       0.079200
     38 H6           3.8890     0.5550    -5.5210 h1         1 F76       0.079200
     39 H7           4.1900     1.8570    -7.8310 hn         1 F76       0.347500
     40 H8           4.2680     4.8510    -5.9410 ha         1 F76       0.181500
     41 H9           4.5410     7.1180    -6.8700 ha         1 F76       0.158500
     42 H10          2.3740     8.2350   -10.2000 hn         1 F76       0.491467
     43 H11          3.0370     9.7130    -9.9900 hn         1 F76       0.491467
     44 H12          4.0050     5.5740   -10.8160 ha         1 F76       0.158500
     45 H13          3.7340     3.3040    -9.8980 ha         1 F76       0.181500
     46 H14         -0.2840     0.4430    -4.4200 hc         1 F76       0.056200
     47 H15         -1.0060    -1.0970    -3.9390 hc         1 F76       0.056200
     48 H16         -2.5020     1.0520    -4.4880 hc         1 F76       0.050700
     49 H17         -2.1850     1.3850    -2.7740 hc         1 F76       0.050700
     50 H18         -3.2790    -1.2220    -3.8900 hc         1 F76       0.045700
     51 H19         -4.2350     0.0200    -3.0640 hc         1 F76       0.045700
     52 H20         -2.1920    -1.8700    -1.9400 hc         1 F76       0.054200
     53 H21         -3.7750    -1.4020    -1.2880 hc         1 F76       0.054200
     54 H22         -2.5820     1.0100    -1.2690 hc         1 F76       0.069700
     55 H23         -2.4620    -0.1120     0.0930 hc         1 F76       0.069700
     56 H233         2.5870     8.8320    -8.6920 hn         1 F76       0.491467
@<TRIPOS>BOND
     1    22    20 2
     2    21    20 2
     3    20    23 1
     4    20    19 1
     5    19    24 ar
     6    19    18 ar
     7    24    25 ar
     8    18    17 ar
     9    25    16 ar
    10    17    16 ar
    11    16    15 1
    12    15    13 1
    13    14    13 2
    14    27    28 1
    15    27    26 1
    16    10     9 2
    17    13    12 1
    18    29    28 1
    19    29    30 1
    20    31    30 1
    21    31    32 1
    22    26    32 ar
    23    26     8 ar
    24     9     8 1
    25     9    11 1
    26    32     1 ar
    27     8     7 ar
    28    12    11 1
    29     1     2 ar
    30     7     2 ar
    31     7     6 ar
    32     2     3 ar
    33     6     5 ar
    34     3     4 ar
    35     5     4 ar
    36     3    33 1
    37     4    34 1
    38     5    35 1
    39     6    36 1
    40    12    37 1
    41    12    38 1
    42    15    39 1
    43    17    40 1
    44    18    41 1
    45    23    42 1
    46    23    43 1
    47    24    44 1
    48    25    45 1
    49    27    46 1
    50    27    47 1
    51    28    48 1
    52    28    49 1
    53    29    50 1
    54    29    51 1
    55    30    52 1
    56    30    53 1
    57    31    54 1
    58    31    55 1
    59    56    23 1
@<TRIPOS>SUBSTRUCTURE
     1 F76         1 TEMP              0 ****  ****    0 ROOT
