@<TRIPOS>MOLECULE
F77
   38    39     1     0     0
SMALL
bcc


@<TRIPOS>ATOM
      1 C1           0.0000     0.0000     0.0000 c3         1 F77       0.006900
      2 C2           1.5250     0.0000     0.0000 c3         1 F77       0.027900
      3 C3           2.0920     0.0000     1.3830 ca         1 F77      -0.111300
      4 C4           2.3470    -1.2200     2.0080 ca         1 F77      -0.128000
      5 C5           2.8740    -1.2460     3.2990 ca         1 F77      -0.144000
      6 C6           3.1470    -0.0510     3.9650 ca         1 F77       0.042600
      7 C7           2.8910     1.1690     3.3400 ca         1 F77      -0.048600
      8 C8           2.3640     1.1950     2.0490 ca         1 F77      -0.054300
      9 C9           2.0860     2.5010     1.3730 c3         1 F77       0.045200
     10 C10          3.1790     2.4210     4.0360 c          1 F77       0.977200
     11 O11          4.2500     3.0270     3.9940 o          1 F77      -0.884300
     12 O12          2.1140     2.8650     4.7560 o          1 F77      -0.884300
     13 N13          3.6870    -0.1050     5.2890 nu         1 F77      -0.351500
     14 S14          5.2750    -0.7330     5.5080 sy         1 F77       0.927200
     15 O15          5.7380    -0.3850     6.8390 o          1 F77      -0.590300
     16 O16          5.3320    -2.1110     5.0630 o          1 F77      -0.590300
     17 C17          6.2140     0.2430     4.3680 ca         1 F77      -0.126500
     18 C18          6.7740     1.4310     4.8000 ca         1 F77       0.054500
     19 C19          7.5140     2.2000     3.9030 ca         1 F77      -0.158500
     20 C20          7.6810     1.7660     2.5870 ca         1 F77       0.139900
     21 C21          7.1080     0.5650     2.1700 ca         1 F77      -0.158500
     22 C22          6.3690    -0.2040     3.0690 ca         1 F77       0.054500
     23 F23          8.3920     2.5050     1.7250 f          1 F77      -0.134900
     24 H11         -0.3610     0.6770    -0.7650 hc         1 F77      -0.000967
     25 H12         -0.3610    -1.0010    -0.2040 hc         1 F77      -0.000967
     26 H13         -0.3610     0.3230     0.9690 hc         1 F77      -0.000967
     27 H21A         1.8760     0.8810    -0.5230 hc         1 F77       0.009200
     28 H22A         1.8760    -0.8820    -0.5230 hc         1 F77       0.009200
     29 H4           2.1350    -2.1480     1.4900 ha         1 F77       0.092000
     30 H5           3.0720    -2.1940     3.7840 ha         1 F77       0.115000
     31 H91          2.4510     3.3130     1.9920 hc         1 F77       0.014367
     32 H92          1.0190     2.6120     1.2250 hc         1 F77       0.014367
     33 H93          2.5890     2.5260     0.4140 hc         1 F77       0.014367
     34 HN13         3.0890     0.0300     6.0790 hn         1 F77       0.348800
     35 H18          6.6390     1.7600     5.8230 ha         1 F77       0.125500
     36 H19          7.9590     3.1330     4.2270 ha         1 F77       0.112500
     37 H21          7.2390     0.2290     1.1490 ha         1 F77       0.112500
     38 H22          5.9210    -1.1380     2.7520 ha         1 F77       0.125500
@<TRIPOS>BOND
     1     1     2 1   
     2     1    24 1   
     3     1    25 1   
     4     1    26 1   
     5     2     3 1   
     6     2    27 1   
     7     2    28 1   
     8     3     4 ar  
     9     3     8 ar  
    10     4     5 ar  
    11     4    29 1   
    12     5     6 ar  
    13     5    30 1   
    14     6     7 ar  
    15     6    13 1   
    16     7     8 ar  
    17     7    10 1   
    18     8     9 1   
    19     9    31 1   
    20     9    32 1   
    21     9    33 1   
    22    10    11 1   
    23    10    12 1   
    24    13    14 1   
    25    13    34 1   
    26    14    15 2   
    27    14    16 2   
    28    14    17 1   
    29    17    18 ar  
    30    17    22 ar  
    31    18    19 ar  
    32    18    35 1   
    33    19    20 ar  
    34    19    36 1   
    35    20    21 ar  
    36    20    23 1   
    37    21    22 ar  
    38    21    37 1   
    39    22    38 1   
@<TRIPOS>SUBSTRUCTURE
     1 F77         1 TEMP              0 ****  ****    0 ROOT
