@<TRIPOS>MOLECULE
molecule
   78    81     1     0     0
SMALL
bcc


@<TRIPOS>ATOM
      1 C21          0.0000     0.0000     0.0000 c          1 F78       0.671700
      2 O22          1.2150     0.0000     0.0000 o          1 F78      -0.585100
      3 C22         -0.7390     0.0000     1.2800 ca         1 F78      -0.131600
      4 C27         -0.0440    -0.0060     2.4900 ca         1 F78      -0.089000
      5 C26         -0.7430    -0.0000     3.6860 ca         1 F78       0.097100
      6 C25         -2.1310    -0.0000     3.6790 ca         1 F78      -0.137000
      7 C24         -2.8210     0.0000     2.4810 ca         1 F78      -0.124000
      8 C23         -2.1350     0.0010     1.2840 ca         1 F78      -0.119000
      9 O27         -0.0700     0.0010     4.8660 oh         1 F78      -0.517100
     10 N11         -0.8130     1.4170    -5.8400 n3         1 F78      -0.812500
     11 C12         -1.7620     0.6640    -6.6630 c3         1 F78       0.234800
     12 C13         -1.0300     0.0610    -7.8640 c3         1 F78      -0.097400
     13 C14         -2.0220    -0.7250    -8.7240 c3         1 F78      -0.033100
     14 C16         -0.0130     0.7250    -4.8260 c3         1 F78       0.228800
     15 C17         -0.8200     0.6100    -3.5310 c3         1 F78       0.104100
     16 O18         -1.9570    -0.2260    -3.7510 oh         1 F78      -0.599800
     17 C19          0.0580    -0.0000    -2.4360 c3         1 F78       0.102700
     18 N20         -0.6750     0.0000    -1.1670 ns         1 F78      -0.582900
     19 C32          0.4200    -1.4370    -2.8150 c3         1 F78      -0.043100
     20 C33          0.9040    -2.6570    -0.6840 ca         1 F78      -0.117500
     21 C34          1.7870    -3.1700     0.2490 ca         1 F78      -0.119500
     22 C35          3.1490    -3.0220     0.0650 ca         1 F78      -0.125000
     23 C36          3.6280    -2.3610    -1.0510 ca         1 F78      -0.119500
     24 C37          2.7460    -1.8480    -1.9830 ca         1 F78      -0.117500
     25 C38          1.3830    -1.9960    -1.8000 ca         1 F78      -0.073300
     26 C40         -1.3010    -1.3190    -9.9060 ca         1 F78      -0.082300
     27 C41         -0.7390    -2.5790    -9.8120 ca         1 F78      -0.124000
     28 C42         -0.0780    -3.1240   -10.8960 ca         1 F78      -0.126500
     29 C43          0.0220    -2.4090   -12.0750 ca         1 F78      -0.131000
     30 C44         -0.5400    -1.1500   -12.1700 ca         1 F78      -0.126500
     31 C45         -1.2050    -0.6070   -11.0870 ca         1 F78      -0.124000
     32 S8          -0.6430     3.0500    -6.0550 sy         1 F78       1.425200
     33 O9          -1.0730     3.3270    -7.3810 o          1 F78      -0.635300
     34 O10          0.6490     3.3870    -5.5710 o          1 F78      -0.635300
     35 C5          -1.7970     3.8400    -4.9830 ca         1 F78      -0.358500
     36 C4          -1.4230     4.1780    -3.6950 ca         1 F78       0.005500
     37 C6          -3.0750     4.1210    -5.4310 ca         1 F78       0.005500
     38 C3          -2.3260     4.7970    -2.8520 ca         1 F78      -0.215000
     39 C7          -3.9830     4.7340    -4.5900 ca         1 F78      -0.215000
     40 C2          -3.6080     5.0800    -3.2990 ca         1 F78       0.191100
     41 O1          -4.4970     5.6890    -2.4720 os         1 F78      -0.322900
     42 C1          -5.8000     5.9500    -2.9990 c3         1 F78       0.125700
     43 H27          1.0390    -0.0060     2.4930 ha         1 F78       0.171000
     44 H25         -2.6760     0.0020     4.6150 ha         1 F78       0.142000
     45 H24         -3.9040     0.0010     2.4820 ha         1 F78       0.135000
     46 H23         -2.6790     0.0010     0.3470 ha         1 F78       0.123000
     47 HO27         0.0020     0.8850     5.1870 ho         1 F78       0.422000
     48 H12         -2.5430     1.3290    -7.0130 h1         1 F78       0.059200
     49 H12A        -2.2020    -0.1300    -6.0720 h1         1 F78       0.059200
     50 H13         -0.2500    -0.6040    -7.5140 hc         1 F78       0.057200
     51 H13A        -0.5900     0.8550    -8.4550 hc         1 F78       0.057200
     52 H14         -2.8030    -0.0600    -9.0730 hc         1 F78       0.048200
     53 H14A        -2.4620    -1.5190    -8.1330 hc         1 F78       0.048200
     54 H16          0.8950     1.2850    -4.6380 h1         1 F78       0.081200
     55 H16A         0.2410    -0.2660    -5.1820 h1         1 F78       0.081200
     56 H17         -1.1500     1.5950    -3.2230 h1         1 F78       0.040700
     57 HO18        -2.7040     0.1360    -3.3040 ho         1 F78       0.400000
     58 H19          0.9630     0.5850    -2.3300 h1         1 F78       0.089700
     59 HN20        -1.6740     0.0620    -1.1670 hn         1 F78       0.309500
     60 H32          0.8830    -1.4460    -3.7950 hc         1 F78       0.058700
     61 H32A        -0.4770    -2.0430    -2.8340 hc         1 F78       0.058700
     62 H33         -0.1630    -2.7730    -0.5390 ha         1 F78       0.123000
     63 H34          1.4110    -3.6880     1.1230 ha         1 F78       0.125500
     64 H35          3.8410    -3.4240     0.7950 ha         1 F78       0.125000
     65 H36          4.6960    -2.2460    -1.1950 ha         1 F78       0.125500
     66 H37          3.1210    -1.3300    -2.8580 ha         1 F78       0.123000
     67 H41         -0.8170    -3.1390    -8.8880 ha         1 F78       0.131000
     68 H42          0.3630    -4.1110   -10.8220 ha         1 F78       0.129000
     69 H43          0.5420    -2.8350   -12.9250 ha         1 F78       0.128000
     70 H44         -0.4630    -0.5900   -13.0940 ha         1 F78       0.129000
     71 H45         -1.6460     0.3800   -11.1610 ha         1 F78       0.131000
     72 H4          -0.4220     3.9560    -3.3460 ha         1 F78       0.153000
     73 H6          -3.3670     3.8510    -6.4380 ha         1 F78       0.153000
     74 H3          -2.0320     5.0640    -1.8440 ha         1 F78       0.147000
     75 H7          -4.9840     4.9550    -4.9410 ha         1 F78       0.147000
     76 H1          -6.4050     6.4380    -2.2440 h1         1 F78       0.046033
     77 H1A         -6.2670     5.0160    -3.2870 h1         1 F78       0.046033
     78 H1B         -5.7170     6.5940    -3.8660 h1         1 F78       0.046033
@<TRIPOS>BOND
     1    42    41 1
     2    41    40 1
     3    40    38 ar
     4    40    39 ar
     5    38    36 ar
     6    36    35 ar
     7    35    37 ar
     8    35    32 1
     9    37    39 ar
    10    32    33 2
    11    32    34 2
    12    32    10 1
    13    10    11 1
    14    10    14 1
    15    11    12 1
    16    12    13 1
    17    13    26 1
    18    14    15 1
    19    15    16 1
    20    15    17 1
    21    17    18 1
    22    17    19 1
    23    18     1 1
    24     1     3 1
    25     1     2 2
    26     3     8 ar
    27     3     4 ar
    28     8     7 ar
    29     7     6 ar
    30     6     5 ar
    31     5     4 ar
    32     5     9 1
    33    19    25 1
    34    20    21 ar
    35    20    25 ar
    36    21    22 ar
    37    22    23 ar
    38    23    24 ar
    39    24    25 ar
    40    26    27 ar
    41    26    31 ar
    42    27    28 ar
    43    28    29 ar
    44    29    30 ar
    45    30    31 ar
    46    42    76 1
    47    42    77 1
    48    42    78 1
    49    38    74 1
    50    36    72 1
    51    37    73 1
    52    39    75 1
    53    11    48 1
    54    11    49 1
    55    12    50 1
    56    12    51 1
    57    13    52 1
    58    13    53 1
    59    14    54 1
    60    14    55 1
    61    15    56 1
    62    16    57 1
    63    17    58 1
    64    18    59 1
    65     8    46 1
    66     7    45 1
    67     6    44 1
    68     4    43 1
    69     9    47 1
    70    19    60 1
    71    19    61 1
    72    20    62 1
    73    21    63 1
    74    22    64 1
    75    23    65 1
    76    24    66 1
    77    27    67 1
    78    28    68 1
    79    29    69 1
    80    30    70 1
    81    31    71 1
@<TRIPOS>SUBSTRUCTURE
     1 F78         1 TEMP              0 ****  ****    0 ROOT
