@<TRIPOS>MOLECULE
F78
   78    81     1     0     0
SMALL
bcc


@<TRIPOS>ATOM
      1 C21          0.0000     0.0000     0.0000 c          1 F78       0.594700
      2 O22          1.2150     0.0000     0.0000 o          1 F78      -0.627100
      3 C22         -0.7390     0.0000     1.2800 ca         1 F78      -0.135600
      4 C27         -0.0440    -0.0060     2.4900 ca         1 F78      -0.069000
      5 C26         -0.7430    -0.0000     3.6860 ca         1 F78       0.116100
      6 C25         -2.1310    -0.0000     3.6790 ca         1 F78      -0.123000
      7 C24         -2.8210     0.0000     2.4810 ca         1 F78      -0.089000
      8 C23         -2.1350     0.0010     1.2840 ca         1 F78      -0.107000
      9 O27         -0.0700     0.0010     4.8660 oh         1 F78      -0.497100
     10 N11         -0.8130     1.4170    -5.8400 n3         1 F78      -0.520500
     11 C12         -1.7620     0.6640    -6.6630 c3         1 F78       0.229800
     12 C13         -1.0300     0.0610    -7.8640 c3         1 F78      -0.054400
     13 C14         -2.0220    -0.7250    -8.7240 c3         1 F78       0.037900
     14 C16         -0.0130     0.7250    -4.8260 c3         1 F78       0.209800
     15 C17         -0.8200     0.6100    -3.5310 c3         1 F78       0.143100
     16 O18         -1.9570    -0.2260    -3.7510 oh         1 F78      -0.579800
     17 C19          0.0580    -0.0000    -2.4360 c3         1 F78      -0.000300
     18 N20         -0.6750     0.0000    -1.1670 ns         1 F78      -0.199900
     19 C32          0.4200    -1.4370    -2.8150 c3         1 F78       0.014900
     20 C33          0.9040    -2.6570    -0.6840 ca         1 F78      -0.093000
     21 C34          1.7870    -3.1700     0.2490 ca         1 F78      -0.091000
     22 C35          3.1490    -3.0220     0.0650 ca         1 F78      -0.099000
     23 C36          3.6280    -2.3610    -1.0510 ca         1 F78      -0.091000
     24 C37          2.7460    -1.8480    -1.9830 ca         1 F78      -0.093000
     25 C38          1.3830    -1.9960    -1.8000 ca         1 F78      -0.081300
     26 C40         -1.3010    -1.3190    -9.9060 ca         1 F78      -0.090300
     27 C41         -0.7390    -2.5790    -9.8120 ca         1 F78      -0.096500
     28 C42         -0.0780    -3.1240   -10.8960 ca         1 F78      -0.099000
     29 C43          0.0220    -2.4090   -12.0750 ca         1 F78      -0.105000
     30 C44         -0.5400    -1.1500   -12.1700 ca         1 F78      -0.099000
     31 C45         -1.2050    -0.6070   -11.0870 ca         1 F78      -0.096500
     32 S8          -0.6430     3.0500    -6.0550 sy         1 F78       1.052200
     33 O9          -1.0730     3.3270    -7.3810 o          1 F78      -0.586300
     34 O10          0.6490     3.3870    -5.5710 o          1 F78      -0.586300
     35 C5          -1.7970     3.8400    -4.9830 ca         1 F78      -0.209500
     36 C4          -1.4230     4.1780    -3.6950 ca         1 F78       0.044000
     37 C6          -3.0750     4.1210    -5.4310 ca         1 F78       0.044000
     38 C3          -2.3260     4.7970    -2.8520 ca         1 F78      -0.211500
     39 C7          -3.9830     4.7340    -4.5900 ca         1 F78      -0.211500
     40 C2          -3.6080     5.0800    -3.2990 ca         1 F78       0.201100
     41 O1          -4.4970     5.6890    -2.4720 os         1 F78      -0.304900
     42 C1          -5.8000     5.9500    -2.9990 c3         1 F78       0.244700
     43 H27          1.0390    -0.0060     2.4930 ha         1 F78       0.141000
     44 H25         -2.6760     0.0020     4.6150 ha         1 F78       0.114000
     45 H24         -3.9040     0.0010     2.4820 ha         1 F78       0.105000
     46 H23         -2.6790     0.0010     0.3470 ha         1 F78       0.099000
     47 HO27         0.0020     0.8850     5.1870 ho         1 F78       0.404000
     48 H12         -2.5430     1.3290    -7.0130 h1         1 F78       0.025200
     49 H12A        -2.2020    -0.1300    -6.0720 h1         1 F78       0.025200
     50 H13         -0.2500    -0.6040    -7.5140 hc         1 F78       0.029700
     51 H13A        -0.5900     0.8550    -8.4550 hc         1 F78       0.029700
     52 H14         -2.8030    -0.0600    -9.0730 hc         1 F78       0.016700
     53 H14A        -2.4620    -1.5190    -8.1330 hc         1 F78       0.016700
     54 H16          0.8950     1.2850    -4.6380 h1         1 F78       0.048700
     55 H16A         0.2410    -0.2660    -5.1820 h1         1 F78       0.048700
     56 H17         -1.1500     1.5950    -3.2230 h1         1 F78       0.009700
     57 HO18        -2.7040     0.1360    -3.3040 ho         1 F78       0.386000
     58 H19          0.9630     0.5850    -2.3300 h1         1 F78       0.068700
     59 HN20        -1.6740     0.0620    -1.1670 hn         1 F78       0.173500
     60 H32          0.8830    -1.4460    -3.7950 hc         1 F78       0.031200
     61 H32A        -0.4770    -2.0430    -2.8340 hc         1 F78       0.031200
     62 H33         -0.1630    -2.7730    -0.5390 ha         1 F78       0.099500
     63 H34          1.4110    -3.6880     1.1230 ha         1 F78       0.098500
     64 H35          3.8410    -3.4240     0.7950 ha         1 F78       0.098000
     65 H36          4.6960    -2.2460    -1.1950 ha         1 F78       0.098500
     66 H37          3.1210    -1.3300    -2.8580 ha         1 F78       0.099500
     67 H41         -0.8170    -3.1390    -8.8880 ha         1 F78       0.106500
     68 H42          0.3630    -4.1110   -10.8220 ha         1 F78       0.101500
     69 H43          0.5420    -2.8350   -12.9250 ha         1 F78       0.101000
     70 H44         -0.4630    -0.5900   -13.0940 ha         1 F78       0.101500
     71 H45         -1.6460     0.3800   -11.1610 ha         1 F78       0.106500
     72 H4          -0.4220     3.9560    -3.3460 ha         1 F78       0.123000
     73 H6          -3.3670     3.8510    -6.4380 ha         1 F78       0.123000
     74 H3          -2.0320     5.0640    -1.8440 ha         1 F78       0.125500
     75 H7          -4.9840     4.9550    -4.9410 ha         1 F78       0.125500
     76 H1          -6.4050     6.4380    -2.2440 h1         1 F78       0.000367
     77 H1A         -6.2670     5.0160    -3.2870 h1         1 F78       0.000367
     78 H1B         -5.7170     6.5940    -3.8660 h1         1 F78       0.000367
@<TRIPOS>BOND
     1     1     2 2   
     2     1     3 1   
     3     1    18 1   
     4     3     4 ar  
     5     3     8 ar  
     6     4     5 ar  
     7     4    43 1   
     8     5     6 ar  
     9     5     9 1   
    10     6     7 ar  
    11     6    44 1   
    12     7     8 ar  
    13     7    45 1   
    14     8    46 1   
    15     9    47 1   
    16    10    11 1   
    17    10    14 1   
    18    10    32 1   
    19    11    12 1   
    20    11    48 1   
    21    11    49 1   
    22    12    13 1   
    23    12    50 1   
    24    12    51 1   
    25    13    26 1   
    26    13    52 1   
    27    13    53 1   
    28    14    15 1   
    29    14    54 1   
    30    14    55 1   
    31    15    16 1   
    32    15    17 1   
    33    15    56 1   
    34    16    57 1   
    35    17    18 1   
    36    17    19 1   
    37    17    58 1   
    38    18    59 1   
    39    19    25 1   
    40    19    60 1   
    41    19    61 1   
    42    20    21 ar  
    43    20    25 ar  
    44    20    62 1   
    45    21    22 ar  
    46    21    63 1   
    47    22    23 ar  
    48    22    64 1   
    49    23    24 ar  
    50    23    65 1   
    51    24    25 ar  
    52    24    66 1   
    53    26    27 ar  
    54    26    31 ar  
    55    27    28 ar  
    56    27    67 1   
    57    28    29 ar  
    58    28    68 1   
    59    29    30 ar  
    60    29    69 1   
    61    30    31 ar  
    62    30    70 1   
    63    31    71 1   
    64    32    33 2   
    65    32    34 2   
    66    32    35 1   
    67    35    36 ar  
    68    35    37 ar  
    69    36    38 ar  
    70    36    72 1   
    71    37    39 ar  
    72    37    73 1   
    73    38    40 ar  
    74    38    74 1   
    75    39    40 ar  
    76    39    75 1   
    77    40    41 1   
    78    41    42 1   
    79    42    76 1   
    80    42    77 1   
    81    42    78 1   
@<TRIPOS>SUBSTRUCTURE
     1 F78         1 TEMP              0 ****  ****    0 ROOT
