@<TRIPOS>MOLECULE
F79
   45    46     1     0     0
SMALL
bcc


@<TRIPOS>ATOM
      1 C1           0.0000     0.0000     0.0000 ca         1 F79       0.068600
      2 C2           1.3950     0.0000     0.0000 ca         1 F79      -0.054600
      3 C3           2.0930     0.0000     1.2070 ca         1 F79       0.088100
      4 C4           1.3950     0.0000     2.4160 ca         1 F79      -0.127300
      5 C5           0.0010     0.0000     2.4160 ca         1 F79      -0.109000
      6 C6          -0.6970     0.0000     1.2080 ca         1 F79      -0.115000
      7 C7           2.1240    -0.0000     3.7200 c3         1 F79       0.046900
      8 C8           2.4060    -1.4120     4.2240 c3         1 F79       0.007900
      9 O9           3.4570     0.0010     1.2130 os         1 F79      -0.280900
     10 C10          4.1030     1.2710     1.2160 c3         1 F79       0.192400
     11 C11          5.4370     1.1570     1.9310 c3         1 F79      -0.071200
     12 N12          6.1290     2.4650     1.9040 nz         1 F79       0.086400
     13 C13          2.1310     0.0010    -1.2610 c          1 F79       0.969200
     14 O14          2.3920    -1.2580    -1.7050 o          1 F79      -0.871300
     15 O15          2.4900     1.0070    -1.8740 o          1 F79      -0.871300
     16 N16         -0.7390     0.0000    -1.2250 nu         1 F79      -0.365500
     17 S17         -1.6760     1.3870    -1.6250 sy         1 F79       0.933200
     18 C18         -0.4830     2.6880    -1.4850 ca         1 F79      -0.131500
     19 O19         -2.0530     1.3120    -3.0250 o          1 F79      -0.571800
     20 O20         -2.6940     1.6090    -0.6160 o          1 F79      -0.571800
     21 C21          0.2610     3.0420    -2.5950 ca         1 F79       0.058000
     22 C22          1.2010     4.0670    -2.4840 ca         1 F79      -0.163500
     23 C23          1.3800     4.7180    -1.2640 ca         1 F79       0.124900
     24 C24          0.6190     4.3460    -0.1550 ca         1 F79      -0.163500
     25 C25         -0.3210     3.3210    -0.2670 ca         1 F79       0.058000
     26 F26          2.2820     5.7030    -1.1570 f          1 F79      -0.136900
     27 H5          -0.5410     0.0010     3.3540 ha         1 F79       0.105000
     28 H6          -1.7800     0.0000     1.2090 ha         1 F79       0.130000
     29 H71          3.0640     0.5230     3.5970 hc         1 F79      -0.006800
     30 H72          1.5250     0.5220     4.4560 hc         1 F79      -0.006800
     31 H81          2.8700    -1.9910     3.4350 hc         1 F79       0.005367
     32 H82          3.0730    -1.3640     5.0770 hc         1 F79       0.005367
     33 H83          1.4770    -1.8830     4.5200 hc         1 F79       0.005367
     34 H101         4.2660     1.5950     0.1950 h1         1 F79       0.026200
     35 H102         3.4780     1.9920     1.7280 h1         1 F79       0.026200
     36 H111         5.2710     0.8580     2.9590 hx         1 F79       0.088700
     37 H112         6.0500     0.4140     1.4340 hx         1 F79       0.088700
     38 H121         5.5360     3.1650     2.3050 hn         1 F79       0.218800
     39 H122         6.9770     2.4050     2.4310 hn         1 F79       0.218800
     40 HN16        -0.8650    -0.8530    -1.7330 hn         1 F79       0.359800
     41 H21          0.1150     2.5310    -3.5390 ha         1 F79       0.129500
     42 H22          1.7910     4.3560    -3.3440 ha         1 F79       0.114000
     43 H24          0.7590     4.8530     0.7920 ha         1 F79       0.114000
     44 H25         -0.9160     3.0260     0.5890 ha         1 F79       0.129500
     45 H123         6.3250     2.7190     0.9560 hn         1 F79       0.218800
@<TRIPOS>BOND
     1     1     2 ar  
     2     1     6 ar  
     3     1    16 1   
     4     2     3 ar  
     5     2    13 1   
     6     3     4 ar  
     7     3     9 1   
     8     4     5 ar  
     9     4     7 1   
    10     5     6 ar  
    11     5    27 1   
    12     6    28 1   
    13     7     8 1   
    14     7    29 1   
    15     7    30 1   
    16     8    31 1   
    17     8    32 1   
    18     8    33 1   
    19     9    10 1   
    20    10    11 1   
    21    10    34 1   
    22    10    35 1   
    23    11    12 1   
    24    11    36 1   
    25    11    37 1   
    26    12    38 1   
    27    12    39 1   
    28    12    45 1   
    29    13    14 1   
    30    13    15 1   
    31    16    17 1   
    32    16    40 1   
    33    17    18 1   
    34    17    19 2   
    35    17    20 2   
    36    18    21 ar  
    37    18    25 ar  
    38    21    22 ar  
    39    21    41 1   
    40    22    23 ar  
    41    22    42 1   
    42    23    24 ar  
    43    23    26 1   
    44    24    25 ar  
    45    24    43 1   
    46    25    44 1   
@<TRIPOS>SUBSTRUCTURE
     1 F79         1 TEMP              0 ****  ****    0 ROOT
