@<TRIPOS>MOLECULE
molecule
   40    42     1     0     0
SMALL
bcc


@<TRIPOS>ATOM
      1 C1           0.0000     0.0000     0.0000 c3         1 F7A       0.684200
      2 F1           1.3980     0.0000     0.0000 f          1 F7A      -0.214300
      3 N1          -4.1630     0.0000     0.8070 ns         1 F7A      -0.470100
      4 O1          -2.4390     0.0010    -0.5920 o          1 F7A      -0.567100
      5 C2          -0.5030     0.0000     1.4200 ca         1 F7A      -0.123300
      6 F2          -0.4670     1.1420    -0.6600 f          1 F7A      -0.214300
      7 O2          -5.4280    -1.0380    -3.6960 os         1 F7A      -0.241200
      8 C3          -1.8750    -0.0010     1.6770 ca         1 F7A      -0.102600
      9 F3          -0.4660    -1.1420    -0.6600 f          1 F7A      -0.214300
     10 C4          -2.3330    -0.0000     2.9960 ca         1 F7A      -0.111000
     11 C5          -1.4280    -0.0010     4.0360 ca         1 F7A      -0.111000
     12 C6          -0.0680     0.0000     3.7750 ca         1 F7A      -0.110000
     13 C7           0.3910    -0.0060     2.4700 ca         1 F7A      -0.093000
     14 C8          -2.8400    -0.0000     0.5560 c          1 F7A       0.664700
     15 C9          -5.0760     0.0870    -0.2490 ca         1 F7A       0.082600
     16 C10         -4.7950    -0.5270    -1.4620 ca         1 F7A      -0.148000
     17 C11         -5.7000    -0.4390    -2.5070 ca         1 F7A       0.152100
     18 C12         -6.8870     0.2620    -2.3390 ca         1 F7A      -0.223000
     19 C13         -7.1650     0.8730    -1.1300 ca         1 F7A      -0.079000
     20 C14         -6.2680     0.7820    -0.0850 ca         1 F7A      -0.193000
     21 C15         -6.2860    -0.8260    -4.7290 ca         1 F7A       0.104100
     22 C16         -6.4010     0.4390    -5.2880 ca         1 F7A      -0.141500
     23 C17         -7.2730     0.6520    -6.3380 ca         1 F7A      -0.118000
     24 C18         -8.0300    -0.3930    -6.8330 ca         1 F7A      -0.134000
     25 C19         -7.9170    -1.6550    -6.2770 ca         1 F7A      -0.118000
     26 C20         -7.0420    -1.8750    -5.2310 ca         1 F7A      -0.141500
     27 HN1         -4.4940    -0.0960     1.7470 hn         1 F7A       0.326500
     28 H4          -3.3960    -0.0000     3.2020 ha         1 F7A       0.132000
     29 H5          -1.7810     0.0020     5.0600 ha         1 F7A       0.140000
     30 H6           0.6390    -0.0020     4.5950 ha         1 F7A       0.143000
     31 H7           1.4570    -0.0050     2.2730 ha         1 F7A       0.158000
     32 H10         -3.9080    -1.1410    -1.5640 ha         1 F7A       0.177000
     33 H12         -7.5920     0.3350    -3.1570 ha         1 F7A       0.146000
     34 H13         -8.0930     1.4180    -1.0010 ha         1 F7A       0.133000
     35 H14         -6.4880     1.2620     0.8610 ha         1 F7A       0.129000
     36 H16         -5.8080     1.2590    -4.9010 ha         1 F7A       0.146500
     37 H17         -7.3640     1.6390    -6.7750 ha         1 F7A       0.134500
     38 H18         -8.7140    -0.2240    -7.6550 ha         1 F7A       0.132000
     39 H19         -8.5100    -2.4730    -6.6680 ha         1 F7A       0.134500
     40 H20         -6.9540    -2.8630    -4.7960 ha         1 F7A       0.146500
@<TRIPOS>BOND
     1     1     2 1
     2     1     5 1
     3     1     6 1
     4     1     9 1
     5     3    14 1
     6     3    15 1
     7     4    14 2
     8     5     8 ar
     9     5    13 ar
    10     7    17 1
    11     7    21 1
    12     8    10 ar
    13     8    14 1
    14    10    11 ar
    15    11    12 ar
    16    12    13 ar
    17    15    16 ar
    18    15    20 ar
    19    16    17 ar
    20    17    18 ar
    21    18    19 ar
    22    19    20 ar
    23    21    22 ar
    24    21    26 ar
    25    22    23 ar
    26    23    24 ar
    27    24    25 ar
    28    25    26 ar
    29     3    27 1
    30    10    28 1
    31    11    29 1
    32    12    30 1
    33    13    31 1
    34    16    32 1
    35    18    33 1
    36    19    34 1
    37    20    35 1
    38    22    36 1
    39    23    37 1
    40    24    38 1
    41    25    39 1
    42    26    40 1
@<TRIPOS>SUBSTRUCTURE
     1 F7A         1 TEMP              0 ****  ****    0 ROOT
