@<TRIPOS>MOLECULE
F7A
   40    42     1     0     0
SMALL
bcc


@<TRIPOS>ATOM
      1 C1           0.0000     0.0000     0.0000 c3         1 F7A       0.659200
      2 F1           1.3980     0.0000     0.0000 f          1 F7A      -0.204967
      3 N1          -4.1630     0.0000     0.8070 ns         1 F7A      -0.025100
      4 O1          -2.4390     0.0010    -0.5920 o          1 F7A      -0.615100
      5 C2          -0.5030     0.0000     1.4200 ca         1 F7A      -0.143300
      6 F2          -0.4670     1.1420    -0.6600 f          1 F7A      -0.204967
      7 O2          -5.4280    -1.0380    -3.6960 os         1 F7A      -0.212200
      8 C3          -1.8750    -0.0010     1.6770 ca         1 F7A      -0.097600
      9 F3          -0.4660    -1.1420    -0.6600 f          1 F7A      -0.204967
     10 C4          -2.3330    -0.0000     2.9960 ca         1 F7A      -0.093000
     11 C5          -1.4280    -0.0010     4.0360 ca         1 F7A      -0.076000
     12 C6          -0.0680     0.0000     3.7750 ca         1 F7A      -0.083000
     13 C7           0.3910    -0.0060     2.4700 ca         1 F7A      -0.058000
     14 C8          -2.8400    -0.0000     0.5560 c          1 F7A       0.570700
     15 C9          -5.0760     0.0870    -0.2490 ca         1 F7A      -0.062400
     16 C10         -4.7950    -0.5270    -1.4620 ca         1 F7A      -0.133000
     17 C11         -5.7000    -0.4390    -2.5070 ca         1 F7A       0.162100
     18 C12         -6.8870     0.2620    -2.3390 ca         1 F7A      -0.213000
     19 C13         -7.1650     0.8730    -1.1300 ca         1 F7A      -0.043000
     20 C14         -6.2680     0.7820    -0.0850 ca         1 F7A      -0.170000
     21 C15         -6.2860    -0.8260    -4.7290 ca         1 F7A       0.108100
     22 C16         -6.4010     0.4390    -5.2880 ca         1 F7A      -0.123500
     23 C17         -7.2730     0.6520    -6.3380 ca         1 F7A      -0.085500
     24 C18         -8.0300    -0.3930    -6.8330 ca         1 F7A      -0.111000
     25 C19         -7.9170    -1.6550    -6.2770 ca         1 F7A      -0.085500
     26 C20         -7.0420    -1.8750    -5.2310 ca         1 F7A      -0.123500
     27 HN1         -4.4940    -0.0960     1.7470 hn         1 F7A       0.171500
     28 H4          -3.3960    -0.0000     3.2020 ha         1 F7A       0.108000
     29 H5          -1.7810     0.0020     5.0600 ha         1 F7A       0.108000
     30 H6           0.6390    -0.0020     4.5950 ha         1 F7A       0.111000
     31 H7           1.4570    -0.0050     2.2730 ha         1 F7A       0.126000
     32 H10         -3.9080    -1.1410    -1.5640 ha         1 F7A       0.156000
     33 H12         -7.5920     0.3350    -3.1570 ha         1 F7A       0.129000
     34 H13         -8.0930     1.4180    -1.0010 ha         1 F7A       0.102000
     35 H14         -6.4880     1.2620     0.8610 ha         1 F7A       0.106000
     36 H16         -5.8080     1.2590    -4.9010 ha         1 F7A       0.119000
     37 H17         -7.3640     1.6390    -6.7750 ha         1 F7A       0.105000
     38 H18         -8.7140    -0.2240    -7.6550 ha         1 F7A       0.104000
     39 H19         -8.5100    -2.4730    -6.6680 ha         1 F7A       0.105000
     40 H20         -6.9540    -2.8630    -4.7960 ha         1 F7A       0.119000
@<TRIPOS>BOND
     1     1     2 1   
     2     1     5 1   
     3     1     6 1   
     4     1     9 1   
     5     3    14 1   
     6     3    15 1   
     7     3    27 1   
     8     4    14 2   
     9     5     8 ar  
    10     5    13 ar  
    11     7    17 1   
    12     7    21 1   
    13     8    10 ar  
    14     8    14 1   
    15    10    11 ar  
    16    10    28 1   
    17    11    12 ar  
    18    11    29 1   
    19    12    13 ar  
    20    12    30 1   
    21    13    31 1   
    22    15    16 ar  
    23    15    20 ar  
    24    16    17 ar  
    25    16    32 1   
    26    17    18 ar  
    27    18    19 ar  
    28    18    33 1   
    29    19    20 ar  
    30    19    34 1   
    31    20    35 1   
    32    21    22 ar  
    33    21    26 ar  
    34    22    23 ar  
    35    22    36 1   
    36    23    24 ar  
    37    23    37 1   
    38    24    25 ar  
    39    24    38 1   
    40    25    26 ar  
    41    25    39 1   
    42    26    40 1   
@<TRIPOS>SUBSTRUCTURE
     1 F7A         1 TEMP              0 ****  ****    0 ROOT
