@<TRIPOS>MOLECULE
molecule
   19    20     1     0     0
SMALL
bcc


@<TRIPOS>ATOM
      1 C02          0.0000     0.0000     0.0000 c          1 F7B       0.573700
      2 C03          1.5060     0.0000     0.0000 c3         1 F7B      -0.179400
      3 C04          1.9790     0.0000     1.4590 c3         1 F7B      -0.003300
      4 C06         -0.1460     1.7110     1.8340 ca         1 F7B       0.074900
      5 C07         -0.7480     0.9560     0.8200 ca         1 F7B      -0.179600
      6 C08         -2.1230     1.1060     0.5700 ca         1 F7B      -0.054000
      7 C09         -2.8720     1.9840     1.3190 ca         1 F7B       0.006400
      8 C11         -2.2740     2.7270     2.3260 ca         1 F7B      -0.084000
      9 C12         -0.9280     2.5940     2.5830 ca         1 F7B      -0.120000
     10 O01         -0.6000    -0.7960    -0.6910 o          1 F7B      -0.514100
     11 S05          1.5740     1.5960     2.2020 ss         1 F7B      -0.231000
     12 Cl1         -4.5700     2.1630     1.0010 cl         1 F7B      -0.099400
     13 H1           1.8710    -0.8880    -0.5020 hc         1 F7B       0.084700
     14 H2           1.8710     0.8880    -0.5020 hc         1 F7B       0.084700
     15 H3           3.0540    -0.1340     1.4790 h1         1 F7B       0.084700
     16 H4           1.4570    -0.7810     1.9970 h1         1 F7B       0.084700
     17 H5          -2.5950     0.5280    -0.2150 ha         1 F7B       0.168000
     18 H6          -2.8680     3.4170     2.9130 ha         1 F7B       0.150000
     19 H7          -0.4720     3.1800     3.3720 ha         1 F7B       0.151000
@<TRIPOS>BOND
     1    12     7 1
     2     8     9 ar
     3     8     7 ar
     4     9     4 ar
     5     7     6 ar
     6     6     5 ar
     7     4     5 ar
     8     4    11 1
     9     5     1 1
    10    11     3 1
    11     1    10 2
    12     1     2 1
    13     3     2 1
    14     2    13 1
    15     2    14 1
    16     3    15 1
    17     3    16 1
    18     6    17 1
    19     8    18 1
    20     9    19 1
@<TRIPOS>SUBSTRUCTURE
     1 F7B         1 TEMP              0 ****  ****    0 ROOT
