@<TRIPOS>MOLECULE
molecule
   43    45     1     0     0
SMALL
bcc


@<TRIPOS>ATOM
      1 C4           0.0000     0.0000     0.0000 ca         1 F7D      -0.240000
      2 C14          3.4610    -0.1200     3.4820 ca         1 F7D       0.181600
      3 C5           1.3560     0.0010     2.3060 ca         1 F7D       0.811900
      4 C6           1.3830     0.0000     0.0000 ca         1 F7D       0.447200
      5 C11         -2.0730    -2.0880     2.4360 c1         1 F7D      -0.175100
      6 C9          -0.2550    -1.8320    -2.6660 c1         1 F7D      -0.199100
      7 C12         -1.6730    -2.6500     3.3870 c1         1 F7D      -0.095500
      8 C13         -0.7530    -3.0150    -2.9160 c1         1 F7D      -0.109500
      9 N1          -2.0600     0.0040     1.2580 nh         1 F7D      -0.696300
     10 N2          -0.7300     0.0020    -1.1970 n          1 F7D      -0.360000
     11 C3          -0.6770     0.0040     1.2260 ca         1 F7D       0.657200
     12 N3           0.0310     0.0060     2.3490 nb         1 F7D      -0.700000
     13 C1          -2.0310     0.3690    -1.1540 c          1 F7D       0.660500
     14 C2          -2.6380     0.7870     0.1610 c3         1 F7D       0.108500
     15 N4           2.0230     0.0000     1.1620 nb         1 F7D      -0.776000
     16 O1          -2.7040     0.3620    -2.1630 o          1 F7D      -0.596500
     17 N5           2.0660     0.0040     3.4980 nu         1 F7D      -0.615300
     18 C15          4.2310     0.5950     4.3890 ca         1 F7D      -0.202000
     19 C16          5.6090     0.4720     4.3730 ca         1 F7D       0.129900
     20 C17          6.2210    -0.3640     3.4510 ca         1 F7D       0.014100
     21 C18          5.4500    -1.0790     2.5440 ca         1 F7D       0.129900
     22 C19          4.0720    -0.9610     2.5630 ca         1 F7D      -0.202000
     23 F1           6.0460    -1.8930     1.6460 f          1 F7D      -0.120900
     24 O2           7.5760    -0.4850     3.4360 oh         1 F7D      -0.483100
     25 F2           6.3590     1.1680     5.2560 f          1 F7D      -0.120900
     26 H1           1.7780    -0.4050    -0.9240 h4         1 F7D       0.045100
     27 H2          -4.3300     1.0940    -0.8070 hc         1 F7D       0.064367
     28 H3          -4.5390     1.1710     0.9230 hc         1 F7D       0.064367
     29 H4          -4.5040    -0.4570    -0.0010 hc         1 F7D       0.064367
     30 H5           0.9590    -0.4840    -2.2560 h1         1 F7D       0.076700
     31 H6           0.0240     0.3360    -3.2640 h1         1 F7D       0.076700
     32 H7          -3.6360    -1.6030     1.1310 h1         1 F7D       0.063700
     33 H8          -2.1080    -1.8750     0.4310 h1         1 F7D       0.063700
     34 H9          -1.0410    -3.3240     3.9510 ha         1 F7D       0.168500
     35 H10         -0.9160    -3.9980    -3.3390 ha         1 F7D       0.184500
     36 H11         -2.4340     1.8370     0.3290 h1         1 F7D       0.098700
     37 H12          1.5170     0.8410     3.4760 hn         1 F7D       0.433800
     38 H13          4.1500     1.6760     4.3860 ha         1 F7D       0.179000
     39 H14          3.7360    -0.6950     1.5680 ha         1 F7D       0.179000
     40 H15          7.8730    -0.5650     2.5440 ho         1 F7D       0.426000
     41 C7          -4.1500     0.5590     0.1180 c3         1 F7D      -0.090100
     42 C8          -0.1000    -0.3830    -2.4630 c3         1 F7D       0.193100
     43 C10         -2.5860    -1.3670     1.2600 c3         1 F7D       0.259900
@<TRIPOS>BOND
     1    23    21 1
     2    15     4 ar
     3    15     3 ar
     4    22    21 ar
     5    22     2 ar
     6     8     6 3
     7    17     3 1
     8    17     2 1
     9     4     1 ar
    10    21    20 ar
    11     6    42 1
    12     3    12 ar
    13     2    18 ar
    14    42    10 1
    15     1    10 1
    16     1    11 ar
    17    20    24 1
    18    20    19 ar
    19    12    11 ar
    20    18    19 ar
    21    10    13 1
    22    11     9 1
    23    19    25 1
    24    13    16 2
    25    13    14 1
    26     9    14 1
    27     9    43 1
    28    14    41 1
    29    43     5 1
    30     5     7 3
    31     4    26 1
    32    41    27 1
    33    41    28 1
    34    41    29 1
    35    42    30 1
    36    42    31 1
    37    43    32 1
    38    43    33 1
    39     7    34 1
    40     8    35 1
    41    14    36 1
    42    17    37 1
    43    18    38 1
    44    22    39 1
    45    24    40 1
@<TRIPOS>SUBSTRUCTURE
     1 F7D         1 TEMP              0 ****  ****    0 ROOT
