@<TRIPOS>MOLECULE
F7D
   43    45     1     0     0
SMALL
bcc


@<TRIPOS>ATOM
      1 C4           0.0000     0.0000     0.0000 ca         1 F7D      -0.373000
      2 C14          3.4610    -0.1200     3.4820 ca         1 F7D       0.081600
      3 C5           1.3560     0.0010     2.3060 ca         1 F7D       0.653900
      4 C6           1.3830     0.0000     0.0000 ca         1 F7D       0.426200
      5 C11         -2.0730    -2.0880     2.4360 c1         1 F7D      -0.202100
      6 C9          -0.2550    -1.8320    -2.6660 c1         1 F7D      -0.227100
      7 C12         -1.6730    -2.6500     3.3870 c1         1 F7D      -0.068500
      8 C13         -0.7530    -3.0150    -2.9160 c1         1 F7D      -0.060500
      9 N1          -2.0600     0.0040     1.2580 nh         1 F7D      -0.457300
     10 N2          -0.7300     0.0020    -1.1970 n          1 F7D       0.038000
     11 C3          -0.6770     0.0040     1.2260 ca         1 F7D       0.523200
     12 N3           0.0310     0.0060     2.3490 nb         1 F7D      -0.574000
     13 C1          -2.0310     0.3690    -1.1540 c          1 F7D       0.573500
     14 C2          -2.6380     0.7870     0.1610 c3         1 F7D       0.049500
     15 N4           2.0230     0.0000     1.1620 nb         1 F7D      -0.651000
     16 O1          -2.7040     0.3620    -2.1630 o          1 F7D      -0.629500
     17 N5           2.0660     0.0040     3.4980 nu         1 F7D      -0.329300
     18 C15          4.2310     0.5950     4.3890 ca         1 F7D      -0.189000
     19 C16          5.6090     0.4720     4.3730 ca         1 F7D       0.104900
     20 C17          6.2210    -0.3640     3.4510 ca         1 F7D       0.042100
     21 C18          5.4500    -1.0790     2.5440 ca         1 F7D       0.104900
     22 C19          4.0720    -0.9610     2.5630 ca         1 F7D      -0.189000
     23 F1           6.0460    -1.8930     1.6460 f          1 F7D      -0.114900
     24 O2           7.5760    -0.4850     3.4360 oh         1 F7D      -0.458100
     25 F2           6.3590     1.1680     5.2560 f          1 F7D      -0.114900
     26 H1           1.7780    -0.4050    -0.9240 h4         1 F7D       0.009100
     27 H2          -4.3300     1.0940    -0.8070 hc         1 F7D       0.032033
     28 H3          -4.5390     1.1710     0.9230 hc         1 F7D       0.032033
     29 H4          -4.5040    -0.4570    -0.0010 hc         1 F7D       0.032033
     30 H5           0.9590    -0.4840    -2.2560 h1         1 F7D       0.039700
     31 H6           0.0240     0.3360    -3.2640 h1         1 F7D       0.039700
     32 H7          -3.6360    -1.6030     1.1310 h1         1 F7D       0.026200
     33 H8          -2.1080    -1.8750     0.4310 h1         1 F7D       0.026200
     34 H9          -1.0410    -3.3240     3.9510 ha         1 F7D       0.139500
     35 H10         -0.9160    -3.9980    -3.3390 ha         1 F7D       0.148500
     36 H11         -2.4340     1.8370     0.3290 h1         1 F7D       0.060700
     37 H12          1.5170     0.8410     3.4760 hn         1 F7D       0.310800
     38 H13          4.1500     1.6760     4.3860 ha         1 F7D       0.155000
     39 H14          3.7360    -0.6950     1.5680 ha         1 F7D       0.155000
     40 H15          7.8730    -0.5650     2.5440 ho         1 F7D       0.407000
     41 C7          -4.1500     0.5590     0.1180 c3         1 F7D      -0.013100
     42 C8          -0.1000    -0.3830    -2.4630 c3         1 F7D       0.165100
     43 C10         -2.5860    -1.3670     1.2600 c3         1 F7D       0.272900
@<TRIPOS>BOND
     1     1     4 ar  
     2     1    10 1   
     3     1    11 ar  
     4     2    17 1   
     5     2    18 ar  
     6     2    22 ar  
     7     3    12 ar  
     8     3    15 ar  
     9     3    17 1   
    10     4    15 ar  
    11     4    26 1   
    12     5     7 3   
    13     5    43 1   
    14     6     8 3   
    15     6    42 1   
    16     7    34 1   
    17     8    35 1   
    18     9    11 1   
    19     9    14 1   
    20     9    43 1   
    21    10    13 1   
    22    10    42 1   
    23    11    12 ar  
    24    13    14 1   
    25    13    16 2   
    26    14    36 1   
    27    14    41 1   
    28    17    37 1   
    29    18    19 ar  
    30    18    38 1   
    31    19    20 ar  
    32    19    25 1   
    33    20    21 ar  
    34    20    24 1   
    35    21    22 ar  
    36    21    23 1   
    37    22    39 1   
    38    24    40 1   
    39    27    41 1   
    40    28    41 1   
    41    29    41 1   
    42    30    42 1   
    43    31    42 1   
    44    32    43 1   
    45    33    43 1   
@<TRIPOS>SUBSTRUCTURE
     1 F7D         1 TEMP              0 ****  ****    0 ROOT
