@<TRIPOS>MOLECULE
F7J
   67    71     1     0     0
SMALL
bcc


@<TRIPOS>ATOM
      1 N3           0.0000     0.0000     0.0000 ns         1 F7J      -0.029100
      2 C4           2.0960     0.0000     1.2090 ca         1 F7J      -0.086000
      3 N2           5.0860    -0.0420    -6.4350 n          1 F7J      -0.313800
      4 C7           3.4860     0.0110    -1.1920 ca         1 F7J      -0.077800
      5 C6           4.1830     0.0110     0.0300 ca         1 F7J      -0.205200
      6 C9           5.7010     0.0290    -1.6280 cc         1 F7J      -0.250100
      7 C13          4.7000     1.2540    -5.8610 c3         1 F7J       0.210000
      8 C20          7.1050    -2.5650   -10.0530 c3         1 F7J      -0.026900
      9 C21          7.3010    -1.2590    -9.2420 c3         1 F7J      -0.019400
     10 C8           4.5080     0.0230    -2.2420 cd         1 F7J      -0.119400
     11 C18          5.0930    -2.1350    -8.6850 c3         1 F7J      -0.019400
     12 C16          5.9350    -0.1060    -7.4790 c          1 F7J       0.613100
     13 C19          5.5920    -2.8480    -9.9530 c3         1 F7J      -0.026900
     14 C26         -4.9200     0.9040     0.7790 ca         1 F7J      -0.051000
     15 C2           2.0900     0.0000    -1.1990 ca         1 F7J      -0.039300
     16 C3           1.4020     0.0000     0.0000 ca         1 F7J      -0.132400
     17 C5           3.4720     0.0060     1.2260 ca         1 F7J      -0.096000
     18 N1           5.5290     0.0220    -0.2710 na         1 F7J       0.393600
     19 C10          6.6120     0.0270     0.7150 c3         1 F7J      -0.005400
     20 C11          4.2640     0.0280    -3.7290 c3         1 F7J       0.010500
     21 C12          4.9770     1.2290    -4.3540 c3         1 F7J      -0.147400
     22 C14          4.5330    -1.2690    -5.8440 c3         1 F7J       0.210000
     23 C15          4.8120    -1.2600    -4.3370 c3         1 F7J      -0.147400
     24 O1           6.3880     0.9140    -7.9550 o          1 F7J      -0.629100
     25 C17          6.3210    -1.4440    -8.0570 c3         1 F7J      -0.123700
     26 C22         -0.6730     0.6600     0.9630 c          1 F7J       0.580700
     27 O2          -0.0690     1.1800     1.8800 o          1 F7J      -0.633100
     28 C23         -2.1480     0.7520     0.9030 ca         1 F7J      -0.158600
     29 C24         -2.8440     0.1550    -0.1520 ca         1 F7J      -0.066000
     30 C25         -4.2200     0.2390    -0.2090 ca         1 F7J      -0.109000
     31 C27         -4.2370     1.5000     1.8410 ca         1 F7J       0.017000
     32 C28         -2.8460     1.4240     1.9020 ca         1 F7J      -0.007000
     33 C29         -4.9630     2.1900     2.8650 cg         1 F7J       0.227800
     34 N4          -5.5520     2.7220     3.6780 n1         1 F7J      -0.371800
     35 H28         -0.5000    -0.7010    -0.5110 hn         1 F7J       0.168500
     36 H4           1.5520     0.0310     2.1460 ha         1 F7J       0.146000
     37 H6           6.6680     0.0430    -2.1160 h4         1 F7J       0.140000
     38 H14          5.2820     2.0340    -6.3370 h1         1 F7J       0.037450
     39 H13          3.6480     1.4240    -6.0570 h1         1 F7J       0.037450
     40 H25          7.2170    -2.3680   -11.1120 hc         1 F7J       0.016450
     41 H24          7.8150    -3.3160    -9.7280 hc         1 F7J       0.016450
     42 H26          7.2220    -0.4000    -9.8960 hc         1 F7J       0.025950
     43 H27          8.2630    -1.2710    -8.7450 hc         1 F7J       0.025950
     44 H20          4.5010    -2.8150    -8.0830 hc         1 F7J       0.025950
     45 H21          4.5140    -1.2600    -8.9510 hc         1 F7J       0.025950
     46 H23          5.1100    -2.6370   -10.9000 hc         1 F7J       0.016450
     47 H22          5.4230    -3.8770    -9.6620 hc         1 F7J       0.016450
     48 H31         -6.0000     0.9670     0.7290 ha         1 F7J       0.114000
     49 H3           1.2970    -1.0080    -2.8980 hc         1 F7J       0.013700
     50 H2           0.3310     0.3660    -2.3420 hc         1 F7J       0.013700
     51 H1           1.8450     0.6440    -3.2130 hc         1 F7J       0.013700
     52 H5           4.0030     0.0060     2.1700 ha         1 F7J       0.103000
     53 H9           6.5920    -0.8990     1.2770 h1         1 F7J       0.018367
     54 H8           7.5630     0.1210     0.2060 h1         1 F7J       0.018367
     55 H7           6.4800     0.8630     1.3910 h1         1 F7J       0.018367
     56 H10          3.2010     0.0960    -3.9260 hc         1 F7J       0.055700
     57 H12          6.0470     1.1690    -4.1970 hc         1 F7J       0.011450
     58 H11          4.6020     2.1450    -3.9140 hc         1 F7J       0.011450
     59 H15          3.4660    -1.2990    -6.0340 h1         1 F7J       0.037450
     60 H16          5.0020    -2.1260    -6.3130 h1         1 F7J       0.037450
     61 H18          5.8450    -1.3780    -4.0340 hc         1 F7J       0.011450
     62 H17          4.7630    -1.1850    -5.4170 hc         1 F7J       0.011450
     63 H19          6.7630    -2.0780    -7.2980 hc         1 F7J       0.039700
     64 H29         -2.3130    -0.4480    -0.8780 ha         1 F7J       0.106000
     65 H30         -4.7520    -0.2220    -1.0320 ha         1 F7J       0.111000
     66 H32         -2.3200     1.8050     2.7690 ha         1 F7J       0.138000
     67 C1           1.3380     0.0000    -2.5050 c3         1 F7J       0.044200
@<TRIPOS>BOND
     1     1    16 1   
     2     1    26 1   
     3     1    35 1   
     4     2    16 ar  
     5     2    17 ar  
     6     2    36 1   
     7     3     7 1   
     8     3    12 1   
     9     3    22 1   
    10     4     5 ar  
    11     4    10 1   
    12     4    15 ar  
    13     5    17 ar  
    14     5    18 1   
    15     6    10 2   
    16     6    18 1   
    17     6    37 1   
    18     7    21 1   
    19     7    38 1   
    20     7    39 1   
    21     8     9 1   
    22     8    13 1   
    23     8    40 1   
    24     8    41 1   
    25     9    25 1   
    26     9    42 1   
    27     9    43 1   
    28    10    20 1   
    29    11    13 1   
    30    11    25 1   
    31    11    44 1   
    32    11    45 1   
    33    12    24 2   
    34    12    25 1   
    35    13    46 1   
    36    13    47 1   
    37    14    30 ar  
    38    14    31 ar  
    39    14    48 1   
    40    15    16 ar  
    41    15    67 1   
    42    17    52 1   
    43    18    19 1   
    44    19    53 1   
    45    19    54 1   
    46    19    55 1   
    47    20    21 1   
    48    20    23 1   
    49    20    56 1   
    50    21    57 1   
    51    21    58 1   
    52    22    23 1   
    53    22    59 1   
    54    22    60 1   
    55    23    61 1   
    56    23    62 1   
    57    25    63 1   
    58    26    27 2   
    59    26    28 1   
    60    28    29 ar  
    61    28    32 ar  
    62    29    30 ar  
    63    29    64 1   
    64    30    65 1   
    65    31    32 ar  
    66    31    33 1   
    67    32    66 1   
    68    33    34 3   
    69    49    67 1   
    70    50    67 1   
    71    51    67 1   
@<TRIPOS>SUBSTRUCTURE
     1 F7J         1 TEMP              0 ****  ****    0 ROOT
