@<TRIPOS>MOLECULE
molecule
   67    71     1     0     0
SMALL
bcc


@<TRIPOS>ATOM
      1 N3           0.0000     0.0000     0.0000 ns         1 F7J      -0.463100
      2 C4           2.0960     0.0000     1.2090 ca         1 F7J      -0.104000
      3 N2           5.0860    -0.0420    -6.4350 n          1 F7J      -0.593800
      4 C7           3.4860     0.0110    -1.1920 ca         1 F7J      -0.081800
      5 C6           4.1830     0.0110     0.0300 ca         1 F7J      -0.036200
      6 C9           5.7010     0.0290    -1.6280 cc         1 F7J      -0.090100
      7 C13          4.7000     1.2540    -5.8610 c3         1 F7J       0.156000
      8 C20          7.1050    -2.5650   -10.0530 c3         1 F7J      -0.085900
      9 C21          7.3010    -1.2590    -9.2420 c3         1 F7J      -0.073900
     10 C8           4.5080     0.0230    -2.2420 cd         1 F7J      -0.121400
     11 C18          5.0930    -2.1350    -8.6850 c3         1 F7J      -0.073900
     12 C16          5.9350    -0.1060    -7.4790 c          1 F7J       0.661100
     13 C19          5.5920    -2.8480    -9.9530 c3         1 F7J      -0.085900
     14 C26         -4.9200     0.9040     0.7790 ca         1 F7J      -0.070000
     15 C2           2.0900     0.0000    -1.1990 ca         1 F7J      -0.046300
     16 C3           1.4020     0.0000     0.0000 ca         1 F7J       0.010600
     17 C5           3.4720     0.0060     1.2260 ca         1 F7J      -0.137000
     18 N1           5.5290     0.0220    -0.2710 na         1 F7J      -0.074400
     19 C10          6.6120     0.0270     0.7150 c3         1 F7J       0.041600
     20 C11          4.2640     0.0280    -3.7290 c3         1 F7J       0.004500
     21 C12          4.9770     1.2290    -4.3540 c3         1 F7J      -0.237900
     22 C14          4.5330    -1.2690    -5.8440 c3         1 F7J       0.156000
     23 C15          4.8120    -1.2600    -4.3370 c3         1 F7J      -0.237900
     24 O1           6.3880     0.9140    -7.9550 o          1 F7J      -0.593100
     25 C17          6.3210    -1.4440    -8.0570 c3         1 F7J      -0.151700
     26 C22         -0.6730     0.6600     0.9630 c          1 F7J       0.669700
     27 O2          -0.0690     1.1800     1.8800 o          1 F7J      -0.592100
     28 C23         -2.1480     0.7520     0.9030 ca         1 F7J      -0.150600
     29 C24         -2.8440     0.1550    -0.1520 ca         1 F7J      -0.085000
     30 C25         -4.2200     0.2390    -0.2090 ca         1 F7J      -0.141000
     31 C27         -4.2370     1.5000     1.8410 ca         1 F7J      -0.028000
     32 C28         -2.8460     1.4240     1.9020 ca         1 F7J      -0.031000
     33 C29         -4.9630     2.1900     2.8650 cg         1 F7J       0.236800
     34 N4          -5.5520     2.7220     3.6780 n1         1 F7J      -0.352800
     35 H28         -0.5000    -0.7010    -0.5110 hn         1 F7J       0.318500
     36 H4           1.5520     0.0310     2.1460 ha         1 F7J       0.167000
     37 H6           6.6680     0.0430    -2.1160 h4         1 F7J       0.163000
     38 H14          5.2820     2.0340    -6.3370 h1         1 F7J       0.076200
     39 H13          3.6480     1.4240    -6.0570 h1         1 F7J       0.076200
     40 H25          7.2170    -2.3680   -11.1120 hc         1 F7J       0.047700
     41 H24          7.8150    -3.3160    -9.7280 hc         1 F7J       0.047700
     42 H26          7.2220    -0.4000    -9.8960 hc         1 F7J       0.055200
     43 H27          8.2630    -1.2710    -8.7450 hc         1 F7J       0.055200
     44 H20          4.5010    -2.8150    -8.0830 hc         1 F7J       0.055200
     45 H21          4.5140    -1.2600    -8.9510 hc         1 F7J       0.055200
     46 H23          5.1100    -2.6370   -10.9000 hc         1 F7J       0.047700
     47 H22          5.4230    -3.8770    -9.6620 hc         1 F7J       0.047700
     48 H31         -6.0000     0.9670     0.7290 ha         1 F7J       0.145000
     49 H3           1.2970    -1.0080    -2.8980 hc         1 F7J       0.044700
     50 H2           0.3310     0.3660    -2.3420 hc         1 F7J       0.044700
     51 H1           1.8450     0.6440    -3.2130 hc         1 F7J       0.044700
     52 H5           4.0030     0.0060     2.1700 ha         1 F7J       0.130000
     53 H9           6.5920    -0.8990     1.2770 h1         1 F7J       0.048367
     54 H8           7.5630     0.1210     0.2060 h1         1 F7J       0.048367
     55 H7           6.4800     0.8630     1.3910 h1         1 F7J       0.048367
     56 H10          3.2010     0.0960    -3.9260 hc         1 F7J       0.067700
     57 H12          6.0470     1.1690    -4.1970 hc         1 F7J       0.088950
     58 H11          4.6020     2.1450    -3.9140 hc         1 F7J       0.088950
     59 H15          3.4660    -1.2990    -6.0340 h1         1 F7J       0.076200
     60 H16          5.0020    -2.1260    -6.3130 h1         1 F7J       0.076200
     61 H18          5.8450    -1.3780    -4.0340 hc         1 F7J       0.088950
     62 H17          4.7630    -1.1850    -5.4170 hc         1 F7J       0.088950
     63 H19          6.7630    -2.0780    -7.2980 hc         1 F7J       0.065700
     64 H29         -2.3130    -0.4480    -0.8780 ha         1 F7J       0.132000
     65 H30         -4.7520    -0.2220    -1.0320 ha         1 F7J       0.142000
     66 H32         -2.3200     1.8050     2.7690 ha         1 F7J       0.170000
     67 C1           1.3380     0.0000    -2.5050 c3         1 F7J      -0.049800
@<TRIPOS>BOND
     1    19    18 1
     2    17     2 ar
     3    17     5 ar
     4    18     5 1
     5    18     6 1
     6     2    16 ar
     7     5     4 ar
     8     6    10 2
     9    16     1 1
    10    16    15 ar
    11     4    10 1
    12     4    15 ar
    13    27    26 2
    14     1    26 1
    15    10    20 1
    16    26    28 1
    17    15    67 1
    18    34    33 3
    19    32    28 ar
    20    32    31 ar
    21    33    31 1
    22    28    29 ar
    23    31    14 ar
    24    20    23 1
    25    20    21 1
    26    23    22 1
    27    29    30 ar
    28    14    30 ar
    29    21     7 1
    30    22     3 1
    31     9    25 1
    32     9     8 1
    33     7     3 1
    34     3    12 1
    35    12    25 1
    36    12    24 2
    37    25    11 1
    38     8    13 1
    39    11    13 1
    40     1    35 1
    41     2    36 1
    42     6    37 1
    43     7    38 1
    44     7    39 1
    45     8    40 1
    46     8    41 1
    47     9    42 1
    48     9    43 1
    49    11    44 1
    50    11    45 1
    51    13    46 1
    52    13    47 1
    53    14    48 1
    54    67    49 1
    55    67    50 1
    56    67    51 1
    57    17    52 1
    58    19    53 1
    59    19    54 1
    60    19    55 1
    61    20    56 1
    62    21    57 1
    63    21    58 1
    64    22    59 1
    65    22    60 1
    66    23    61 1
    67    23    62 1
    68    25    63 1
    69    29    64 1
    70    30    65 1
    71    32    66 1
@<TRIPOS>SUBSTRUCTURE
     1 F7J         1 TEMP              0 ****  ****    0 ROOT
