@<TRIPOS>MOLECULE
F7L
   38    39     1     0     0
SMALL
bcc


@<TRIPOS>ATOM
      1 O1           0.0000     0.0000     0.0000 oh         1 F7L      -0.586800
      2 C2           1.4300     0.0000     0.0000 c3         1 F7L       0.185100
      3 C3           1.9390     0.0000     1.4430 c3         1 F7L       0.181400
      4 O4           1.5620    -1.2200     2.0820 os         1 F7L      -0.421600
      5 C5           1.9900    -1.3220     3.4410 c3         1 F7L       0.279700
      6 C6           1.5410    -2.6410     4.0130 ca         1 F7L      -0.131300
      7 C7           0.8260    -3.5270     3.2280 ca         1 F7L      -0.058000
      8 C8           0.4110    -4.7370     3.7530 ca         1 F7L      -0.113000
      9 C9           0.7120    -5.0640     5.0620 ca         1 F7L      -0.078000
     10 C10          1.4280    -4.1790     5.8490 ca         1 F7L      -0.131000
     11 C11          1.8470    -2.9700     5.3230 ca         1 F7L       0.104900
     12 F12          2.5510    -2.1080     6.0890 f          1 F7L      -0.129900
     13 C13          1.9390     1.2500    -0.7210 c3         1 F7L       0.149800
     14 N14          1.4500     1.2500    -2.1060 n3         1 F7L      -0.542600
     15 C15          2.1100     2.3060    -2.9020 c3         1 F7L       0.148800
     16 C16          1.0710     2.8260    -3.9130 c3         1 F7L      -0.030900
     17 C17         -0.2160     2.0230    -3.6180 c3         1 F7L      -0.030900
     18 C18         -0.0040     1.5510    -2.1570 c3         1 F7L       0.148800
     19 HO1         -0.3140    -0.8890    -0.0270 ho         1 F7L       0.398000
     20 H2           1.7910    -0.8840    -0.5110 h1         1 F7L       0.019700
     21 H3           3.0190     0.0890     1.4450 h1         1 F7L       0.001200
     22 H3A          1.5070     0.8370     1.9780 h1         1 F7L       0.001200
     23 H5           1.5580    -0.5130     4.0180 h1         1 F7L       0.004700
     24 H5A          3.0710    -1.2590     3.4850 h1         1 F7L       0.004700
     25 H7           0.5890    -3.2720     2.2020 ha         1 F7L       0.124000
     26 H8          -0.1490    -5.4300     3.1380 ha         1 F7L       0.106000
     27 H9           0.3860    -6.0110     5.4730 ha         1 F7L       0.106000
     28 H10          1.6650    -4.4360     6.8740 ha         1 F7L       0.119000
     29 H13          3.0230     1.2500    -0.7200 h1         1 F7L       0.015700
     30 H13A         1.5780     2.1340    -0.2100 h1         1 F7L       0.015700
     31 H15          2.4270     3.1130    -2.2520 h1         1 F7L       0.017700
     32 H15A         2.9620     1.8930    -3.4280 h1         1 F7L       0.017700
     33 H16          1.4060     2.6360    -4.9260 hc         1 F7L       0.017200
     34 H16A         0.8960     3.8840    -3.7600 hc         1 F7L       0.017200
     35 H17         -0.2970     1.1730    -4.2850 hc         1 F7L       0.017200
     36 H17A        -1.0890     2.6610    -3.6890 hc         1 F7L       0.017200
     37 H18         -0.2530     2.3430    -1.4610 h1         1 F7L       0.017700
     38 H18A        -0.5850     0.6590    -1.9570 h1         1 F7L       0.017700
@<TRIPOS>BOND
     1     1     2 1   
     2     1    19 1   
     3     2     3 1   
     4     2    13 1   
     5     2    20 1   
     6     3     4 1   
     7     3    21 1   
     8     3    22 1   
     9     4     5 1   
    10     5     6 1   
    11     5    23 1   
    12     5    24 1   
    13     6     7 ar  
    14     6    11 ar  
    15     7     8 ar  
    16     7    25 1   
    17     8     9 ar  
    18     8    26 1   
    19     9    10 ar  
    20     9    27 1   
    21    10    11 ar  
    22    10    28 1   
    23    11    12 1   
    24    13    14 1   
    25    13    29 1   
    26    13    30 1   
    27    14    15 1   
    28    14    18 1   
    29    15    16 1   
    30    15    31 1   
    31    15    32 1   
    32    16    17 1   
    33    16    33 1   
    34    16    34 1   
    35    17    18 1   
    36    17    35 1   
    37    17    36 1   
    38    18    37 1   
    39    18    38 1   
@<TRIPOS>SUBSTRUCTURE
     1 F7L         1 TEMP              0 ****  ****    0 ROOT
