@<TRIPOS>MOLECULE
F7M
   66    73     1     0     0
SMALL
bcc


@<TRIPOS>ATOM
      1 C11          0.0000     0.0000     0.0000 c2         1 F7M      -0.172000
      2 C10          2.2380     0.0010    -1.2110 c3         1 F7M       0.009000
      3 C6           1.7720     0.0000     1.4010 ca         1 F7M      -0.091000
      4 C7           1.3430     0.0000     0.0000 c2         1 F7M      -0.119000
      5 C9           3.0160    -0.0040     2.0330 ca         1 F7M      -0.093000
      6 C1           2.4310    -1.2970    -6.0770 c3         1 F7M      -0.142000
      7 O3           2.2390     1.0460    -5.8850 o          1 F7M      -0.285000
      8 C4           4.4800    -0.6650     5.2260 c2         1 F7M       0.227000
      9 O5           3.5660    -1.3260     5.6790 o          1 F7M      -0.402000
     10 C8           0.5930    -0.0060     2.1690 ca         1 F7M      -0.165000
     11 N12         -0.4670    -0.0000     1.2860 na         1 F7M       0.287000
     12 C13          0.6790    -0.0070     3.5570 ca         1 F7M      -0.085000
     13 C14          3.0810    -0.0140     3.4130 ca         1 F7M      -0.063000
     14 C15          1.9620    -1.2500    -2.0500 c3         1 F7M      -0.528000
     15 C16          1.9620     1.2510    -2.0500 c3         1 F7M      -0.292000
     16 C17          1.9110    -0.0030     4.1710 ca         1 F7M      -0.112000
     17 N18          4.3270    -0.0170     4.0530 ns         1 F7M       0.129000
     18 C19          2.8980    -1.2630    -3.2630 DU         1 F7M      -0.494000
     19 C20          2.8980     1.2650    -3.2620 DU         1 F7M      -0.476000
     20 N21          2.7430     0.0010    -3.9940 nx         1 F7M       1.033000
     21 C22          5.7620    -0.5710     5.9610 c2         1 F7M      -0.083000
     22 N23          6.7530     0.1570     5.4640 n2         1 F7M      -0.026000
     23 C24          7.9090     0.2760     6.0800 c2         1 F7M      -0.056000
     24 C25          8.1420    -0.3580     7.2870 c2         1 F7M      -0.117000
     25 C26          7.1280    -1.1390     7.8550 c2         1 F7M       0.023000
     26 C27          5.9120    -1.2420     7.1710 c2         1 F7M      -0.049000
     27 C28          7.3300    -1.8120     9.1030 c1         1 F7M      -0.111000
     28 N29          7.5090    -2.3440    10.0910 n1         1 F7M      -0.026000
     29 C30          1.7640    -1.0740    -7.4360 c3         1 F7M      -0.109000
     30 C31          1.7300    -2.3930    -8.2100 c3         1 F7M      -0.091000
     31 C32          3.1600    -2.8980    -8.4200 c3         1 F7M      -0.084000
     32 C33          3.8260    -3.1210    -7.0620 c3         1 F7M      -0.091000
     33 C34          3.8600    -1.8020    -6.2860 c3         1 F7M      -0.109000
     34 C35         -1.8800     0.0050     1.6690 c3         1 F7M      -0.120000
     35 H1          -0.7040    -0.3610    -0.7400 h4         1 F7M       0.148000
     36 H2           3.2760     0.0010    -0.8990 hc         1 F7M       0.076000
     37 H3           3.7020     0.4210     1.3100 ha         1 F7M       0.113000
     38 H4           1.8690    -2.0360    -5.5180 hc         1 F7M       0.081000
     39 H5          -0.1690    -0.2750     4.1770 ha         1 F7M       0.105000
     40 H6           2.4130    -1.8990    -1.3100 hc         1 F7M       0.098000
     41 H7           2.6790    -0.8050    -2.7290 DU         1 F7M       0.229000
     42 H8           2.0700     2.2490    -1.6440 hc         1 F7M       0.112000
     43 H9           2.6490     0.9620    -2.8360 DU         1 F7M       0.203000
     44 H10          1.9090    -0.2230     5.2310 ha         1 F7M       0.147000
     45 H11          5.1940     0.4650     3.9210 hn         1 F7M       0.105000
     46 H12          2.5540    -2.2620    -3.5020 hx         1 F7M       0.251000
     47 H13          2.2560    -0.7880    -3.9950 DU         1 F7M       0.127000
     48 H14          2.9860     0.4440    -3.9630 hx         1 F7M      -0.027000
     49 H15          3.0120     2.2280    -3.7470 hx         1 F7M      -0.027000
     50 H16          8.7990     0.6060     5.5580 h4         1 F7M       0.125000
     51 H17          9.0300    -0.3330     7.9070 ha         1 F7M       0.126000
     52 H18          5.3310    -2.0080     7.6700 ha         1 F7M       0.142000
     53 H19          0.7150    -0.9540    -7.1950 hc         1 F7M       0.069750
     54 H20          2.1740    -0.0960    -7.6590 hc         1 F7M       0.069750
     55 H21          1.1670    -3.1420    -7.6670 hc         1 F7M       0.054250
     56 H22          1.1730    -2.0590    -9.0770 hc         1 F7M       0.054250
     57 H23          3.1670    -3.8900    -8.8550 hc         1 F7M       0.055000
     58 H24          3.6500    -2.1960    -9.0840 hc         1 F7M       0.055000
     59 H25          3.5460    -4.0390    -6.5610 hc         1 F7M       0.054250
     60 H26          4.8720    -3.3960    -7.1170 hc         1 F7M       0.054250
     61 H27          4.2850    -2.2290    -5.3860 hc         1 F7M       0.069750
     62 H28          4.6020    -1.0540    -6.5400 hc         1 F7M       0.069750
     63 H29         -2.4200     0.6300     0.9670 h1         1 F7M       0.060000
     64 H30         -1.9900     0.6830     2.5070 h1         1 F7M       0.060000
     65 H31         -2.4300    -0.9150     1.5140 h1         1 F7M       0.060000
     66 C2           2.4640     0.0010    -5.3130 c2         1 F7M      -0.037000
@<TRIPOS>BOND
     1     1     4 1   
     2     1    11 1   
     3     1    35 1   
     4     2     4 1   
     5     2    14 1   
     6     2    15 1   
     7     2    36 1   
     8     3     4 1   
     9     3     5 1   
    10     3    10 1   
    11     5    13 1   
    12     5    37 1   
    13     6    29 1   
    14     6    33 1   
    15     6    38 1   
    16     6    66 1   
    17     7    66 1   
    18     8     9 1   
    19     8    17 1   
    20     8    21 1   
    21    10    11 1   
    22    10    12 1   
    23    11    34 1   
    24    12    16 1   
    25    12    39 1   
    26    13    16 1   
    27    13    17 1   
    28    14    18 1   
    29    14    40 1   
    30    14    41 1   
    31    15    19 1   
    32    15    42 1   
    33    15    43 1   
    34    16    44 1   
    35    17    45 1   
    36    18    20 1   
    37    18    41 1   
    38    18    46 1   
    39    18    47 1   
    40    19    20 1   
    41    19    43 1   
    42    19    48 1   
    43    19    49 1   
    44    20    47 1   
    45    20    66 1   
    46    21    22 1   
    47    21    26 1   
    48    22    23 1   
    49    23    24 1   
    50    23    50 1   
    51    24    25 1   
    52    24    51 1   
    53    25    26 1   
    54    25    27 1   
    55    26    52 1   
    56    27    28 1   
    57    29    30 1   
    58    29    53 1   
    59    29    54 1   
    60    30    31 1   
    61    30    55 1   
    62    30    56 1   
    63    31    32 1   
    64    31    57 1   
    65    31    58 1   
    66    32    33 1   
    67    32    59 1   
    68    32    60 1   
    69    33    61 1   
    70    33    62 1   
    71    34    63 1   
    72    34    64 1   
    73    34    65 1   
@<TRIPOS>SUBSTRUCTURE
     1 F7M         1 TEMP              0 ****  ****    0 ROOT
