@<TRIPOS>MOLECULE
molecule
   66    70     1     0     0
SMALL
bcc


@<TRIPOS>ATOM
      1 C11          0.0000     0.0000     0.0000 cc         1 F7M      -0.049100
      2 C10          2.2380     0.0010    -1.2110 c3         1 F7M      -0.006500
      3 C6           1.7720     0.0000     1.4010 ca         1 F7M      -0.101800
      4 C7           1.3430     0.0000     0.0000 cd         1 F7M      -0.116400
      5 C9           3.0160    -0.0040     2.0330 ca         1 F7M      -0.117000
      6 C1           2.4310    -1.2970    -6.0770 c3         1 F7M      -0.178700
      7 O3           2.2390     1.0460    -5.8850 o          1 F7M      -0.513100
      8 C4           4.4800    -0.6650     5.2260 c          1 F7M       0.545600
      9 O5           3.5660    -1.3260     5.6790 o          1 F7M      -0.594100
     10 C8           0.5930    -0.0060     2.1690 ca         1 F7M      -0.046200
     11 N12         -0.4670    -0.0000     1.2860 na         1 F7M      -0.082400
     12 C13          0.6790    -0.0070     3.5570 ca         1 F7M      -0.129000
     13 C14          3.0810    -0.0140     3.4130 ca         1 F7M       0.067600
     14 C15          1.9620    -1.2500    -2.0500 c3         1 F7M      -0.306400
     15 C16          1.9620     1.2510    -2.0500 c3         1 F7M      -0.306400
     16 C17          1.9110    -0.0030     4.1710 ca         1 F7M      -0.125000
     17 N18          4.3270    -0.0170     4.0530 ns         1 F7M      -0.457100
     18 C19          2.8980    -1.2630    -3.2630 c3         1 F7M      -0.348000
     19 C20          2.8980     1.2650    -3.2620 c3         1 F7M      -0.348000
     20 N21          2.7430     0.0010    -3.9940 n          1 F7M      -0.208800
     21 C22          5.7620    -0.5710     5.9610 ca         1 F7M       0.386800
     22 N23          6.7530     0.1570     5.4640 nb         1 F7M      -0.674000
     23 C24          7.9090     0.2760     6.0800 ca         1 F7M       0.427200
     24 C25          8.1420    -0.3580     7.2870 ca         1 F7M      -0.207300
     25 C26          7.1280    -1.1390     7.8550 ca         1 F7M      -0.015000
     26 C27          5.9120    -1.2420     7.1710 ca         1 F7M      -0.149300
     27 C28          7.3300    -1.8120     9.1030 cg         1 F7M       0.228800
     28 N29          7.5090    -2.3440    10.0910 n1         1 F7M      -0.332800
     29 C30          1.7640    -1.0740    -7.4360 c3         1 F7M      -0.078400
     30 C31          1.7300    -2.3930    -8.2100 c3         1 F7M      -0.072900
     31 C32          3.1600    -2.8980    -8.4200 c3         1 F7M      -0.064400
     32 C33          3.8260    -3.1210    -7.0620 c3         1 F7M      -0.072900
     33 C34          3.8600    -1.8020    -6.2860 c3         1 F7M      -0.078400
     34 C35         -1.8800     0.0050     1.6690 c3         1 F7M       0.024600
     35 H1          -0.7040    -0.3610    -0.7400 h4         1 F7M       0.177000
     36 H2           3.2760     0.0010    -0.8990 hc         1 F7M       0.047700
     37 H3           3.7020     0.4210     1.3100 ha         1 F7M       0.138000
     38 H4           1.8690    -2.0360    -5.5180 hc         1 F7M       0.065700
     39 H5          -0.1690    -0.2750     4.1770 ha         1 F7M       0.133000
     40 H6           2.4130    -1.8990    -1.3100 hc         1 F7M       0.151950
     41 H7           2.6790    -0.8050    -2.7290 hc         1 F7M       0.151950
     42 H8           2.0700     2.2490    -1.6440 hc         1 F7M       0.151950
     43 H9           2.6490     0.9620    -2.8360 hc         1 F7M       0.151950
     44 H10          1.9090    -0.2230     5.2310 ha         1 F7M       0.166000
     45 H11          5.1940     0.4650     3.9210 hn         1 F7M       0.348500
     46 H12          2.5540    -2.2620    -3.5020 h1         1 F7M       0.221950
     47 H13          2.2560    -0.7880    -3.9950 h1         1 F7M       0.221950
     48 H14          2.9860     0.4440    -3.9630 h1         1 F7M       0.221950
     49 H15          3.0120     2.2280    -3.7470 h1         1 F7M       0.221950
     50 H16          8.7990     0.6060     5.5580 h4         1 F7M       0.036100
     51 H17          9.0300    -0.3330     7.9070 ha         1 F7M       0.155000
     52 H18          5.3310    -2.0080     7.6700 ha         1 F7M       0.174000
     53 H19          0.7150    -0.9540    -7.1950 hc         1 F7M       0.059700
     54 H20          2.1740    -0.0960    -7.6590 hc         1 F7M       0.059700
     55 H21          1.1670    -3.1420    -7.6670 hc         1 F7M       0.046700
     56 H22          1.1730    -2.0590    -9.0770 hc         1 F7M       0.046700
     57 H23          3.1670    -3.8900    -8.8550 hc         1 F7M       0.045700
     58 H24          3.6500    -2.1960    -9.0840 hc         1 F7M       0.045700
     59 H25          3.5460    -4.0390    -6.5610 hc         1 F7M       0.046700
     60 H26          4.8720    -3.3960    -7.1170 hc         1 F7M       0.046700
     61 H27          4.2850    -2.2290    -5.3860 hc         1 F7M       0.059700
     62 H28          4.6020    -1.0540    -6.5400 hc         1 F7M       0.059700
     63 H29         -2.4200     0.6300     0.9670 h1         1 F7M       0.050700
     64 H30         -1.9900     0.6830     2.5070 h1         1 F7M       0.050700
     65 H31         -2.4300    -0.9150     1.5140 h1         1 F7M       0.050700
     66 C2           2.4640     0.0010    -5.3130 c          1 F7M       0.493100
@<TRIPOS>BOND
     1    32    33 1
     2    32    31 1
     3    33     6 1
     4    31    30 1
     5     7    66 2
     6     6    66 1
     7     6    29 1
     8    66    20 1
     9    18    20 1
    10    18    14 1
    11    20    19 1
    12    30    29 1
    13    19    15 1
    14    14     2 1
    15    23    24 ar
    16    23    22 ar
    17    24    25 ar
    18    15     2 1
    19     2     4 1
    20    22    21 ar
    21    25    27 1
    22    25    26 ar
    23    21    26 ar
    24    21     8 1
    25    27    28 3
    26     4     3 1
    27     4     1 2
    28     5     3 ar
    29     5    13 ar
    30     8    17 1
    31     8     9 2
    32    17    13 1
    33     3    10 ar
    34    13    16 ar
    35     1    11 1
    36    10    11 1
    37    10    12 ar
    38    11    34 1
    39    16    12 ar
    40     1    35 1
    41     2    36 1
    42     5    37 1
    43     6    38 1
    44    12    39 1
    45    14    40 1
    46    14    41 1
    47    15    42 1
    48    15    43 1
    49    16    44 1
    50    17    45 1
    51    18    46 1
    52    18    47 1
    53    19    48 1
    54    19    49 1
    55    23    50 1
    56    24    51 1
    57    26    52 1
    58    29    53 1
    59    29    54 1
    60    30    55 1
    61    30    56 1
    62    31    57 1
    63    31    58 1
    64    32    59 1
    65    32    60 1
    66    33    61 1
    67    33    62 1
    68    34    63 1
    69    34    64 1
    70    34    65 1
@<TRIPOS>SUBSTRUCTURE
     1 F7M         1 TEMP              0 ****  ****    0 ROOT
