@<TRIPOS>MOLECULE
F7N
   68    71     1     0     0
SMALL
bcc


@<TRIPOS>ATOM
      1 C4           0.0000     0.0000     0.0000 c3         1 F7N       0.226400
      2 C5           1.5310     0.0000     0.0000 c3         1 F7N      -0.074400
      3 C6           2.0340     0.0000     1.4480 c3         1 F7N      -0.068500
      4 C10          8.6910     2.6550     1.7690 c3         1 F7N       0.050000
      5 C13          9.5680    -0.0250     2.1190 ca         1 F7N      -0.255600
      6 C17         11.3510    -1.6150     2.0530 ca         1 F7N      -0.330600
      7 C20          4.7250     1.6400     4.5120 c3         1 F7N      -0.022400
      8 C21          5.9960     0.9800     3.9410 c3         1 F7N      -0.131000
      9 C22          5.5290    -0.0270     2.8760 c3         1 F7N      -0.060400
     10 C24          6.8810     2.0230     3.3110 c          1 F7N       0.593100
     11 C1           1.4530    -1.2140     2.1780 c3         1 F7N       0.121100
     12 C11         10.1300     2.4400     2.2340 c3         1 F7N      -0.090700
     13 C12          8.0860     0.2440     2.1230 c3         1 F7N       0.090300
     14 C14         10.5050     0.9820     2.1610 ca         1 F7N       0.431600
     15 C16         12.2370    -0.5550     2.0890 ca         1 F7N       0.483200
     16 C18          9.9920    -1.3490     2.0680 ca         1 F7N       0.000000
     17 C19          3.6700     1.4670     3.3900 c3         1 F7N      -0.027400
     18 C2          -0.0750    -1.1670     2.0940 c3         1 F7N       0.201400
     19 C23          3.9890     0.0560     2.8360 c3         1 F7N      -0.086500
     20 C29         11.8550    -3.0340     1.9980 c3         1 F7N       0.651200
     21 F30         11.3930    -3.7360     3.1170 f          1 F7N      -0.201967
     22 F31         11.3840    -3.6510     0.8340 f          1 F7N      -0.201967
     23 F32         13.2540    -3.0330     1.9930 f          1 F7N      -0.201967
     24 N15         11.8000     0.6840     2.1400 nb         1 F7N      -0.566000
     25 N33          3.5010    -0.0760     1.4570 ny         1 F7N       0.038000
     26 N9           7.8430     1.6560     2.4400 n          1 F7N      -0.161800
     27 O28          6.7290     3.1940     3.5870 o          1 F7N      -0.614100
     28 O3          -0.4750    -1.1380     0.7220 os         1 F7N      -0.367600
     29 O7           1.9280    -2.4140     1.5640 os         1 F7N      -0.418600
     30 H37         -0.3600     0.9040     0.4760 h1         1 F7N       0.029700
     31 H38         -0.3600    -0.0450    -1.0210 h1         1 F7N       0.029700
     32 H39          1.8920    -0.8860    -0.5080 hc         1 F7N       0.046200
     33 H40          1.8920     0.8870    -0.5070 hc         1 F7N       0.046200
     34 H41          1.7100     0.9080     1.9420 hx         1 F7N       0.098700
     35 H42          1.7710    -3.2030     3.4610 h1         1 F7N       0.006367
     36 H43          1.3870    -4.3170     2.1410 h1         1 F7N       0.006367
     37 H44          3.0690    -3.8750     2.4640 h1         1 F7N       0.006367
     38 H45          8.3690     3.6470     2.0610 h1         1 F7N       0.045700
     39 H46          8.6390     2.5010     0.6980 h1         1 F7N       0.045700
     40 H55          4.4050     1.1280     5.4120 hc         1 F7N       0.068700
     41 H56          4.9000     2.6910     4.7070 hc         1 F7N       0.068700
     42 H58          5.8370    -1.0280     3.1520 hc         1 F7N       0.051200
     43 H57          5.9380     0.2400     1.9090 hc         1 F7N       0.051200
     44 H62          7.8540     0.8100     6.8130 hc         1 F7N       0.017533
     45 H63          6.2000     1.4340     6.7430 hc         1 F7N       0.017533
     46 H61          7.4660     2.1700     5.7500 hc         1 F7N       0.017533
     47 H34          1.7570    -1.1890     3.2170 h1         1 F7N       0.030700
     48 H47         10.2110     2.7650     3.2640 hc         1 F7N       0.053200
     49 H48         10.7900     2.9980     1.5810 hc         1 F7N       0.053200
     50 H49          7.6230    -0.3690     2.8860 h1         1 F7N       0.034700
     51 H50          7.6920     0.0360     1.1360 h1         1 F7N       0.034700
     52 H51         13.3030    -0.7470     2.0780 h4         1 F7N       0.008100
     53 H52          9.2720    -2.1570     2.0400 ha         1 F7N       0.114000
     54 H53          2.6680     1.5000     3.8000 hc         1 F7N       0.038200
     55 H54          3.8040     2.2190     2.6220 hc         1 F7N       0.038200
     56 H36         -0.4360    -0.2760     2.5930 h1         1 F7N       0.032700
     57 H35         -0.4890    -2.0470     2.5710 h1         1 F7N       0.032700
     58 H59          3.5540    -0.7050     3.4730 hx         1 F7N       0.099700
     59 H60          7.6660    -0.1720     4.6520 hc         1 F7N       0.041700
     60 H65          6.2640    -1.1790     6.5820 hc         1 F7N       0.017533
     61 H66          4.8750    -0.4790     5.7390 hc         1 F7N       0.017533
     62 H64          5.8550    -1.7200     4.9480 hc         1 F7N       0.017533
     63 H67          3.7910    -0.9580     1.0840 hn         1 F7N       0.248300
     64 H68          3.8770     0.6630     0.8980 hn         1 F7N       0.248300
     65 C25          6.7540     0.2510     5.0540 c3         1 F7N      -0.047700
     66 C8           2.0460    -3.5190     2.4620 c3         1 F7N       0.249700
     67 C26          7.0980     1.2410     6.1680 c3         1 F7N      -0.010600
     68 C27          5.8780    -0.8690     5.6180 c3         1 F7N      -0.010600
@<TRIPOS>BOND
     1     1     2 1   
     2     1    28 1   
     3     1    30 1   
     4     1    31 1   
     5     2     3 1   
     6     2    32 1   
     7     2    33 1   
     8     3    11 1   
     9     3    25 1   
    10     3    34 1   
    11     4    12 1   
    12     4    26 1   
    13     4    38 1   
    14     4    39 1   
    15     5    13 1   
    16     5    14 ar  
    17     5    16 ar  
    18     6    15 ar  
    19     6    16 ar  
    20     6    20 1   
    21     7     8 1   
    22     7    17 1   
    23     7    40 1   
    24     7    41 1   
    25     8     9 1   
    26     8    10 1   
    27     8    65 1   
    28     9    19 1   
    29     9    42 1   
    30     9    43 1   
    31    10    26 1   
    32    10    27 2   
    33    11    18 1   
    34    11    29 1   
    35    11    47 1   
    36    12    14 1   
    37    12    48 1   
    38    12    49 1   
    39    13    26 1   
    40    13    50 1   
    41    13    51 1   
    42    14    24 ar  
    43    15    24 ar  
    44    15    52 1   
    45    16    53 1   
    46    17    19 1   
    47    17    54 1   
    48    17    55 1   
    49    18    28 1   
    50    18    56 1   
    51    18    57 1   
    52    19    25 1   
    53    19    58 1   
    54    20    21 1   
    55    20    22 1   
    56    20    23 1   
    57    25    63 1   
    58    25    64 1   
    59    29    66 1   
    60    35    66 1   
    61    36    66 1   
    62    37    66 1   
    63    44    67 1   
    64    45    67 1   
    65    46    67 1   
    66    59    65 1   
    67    60    68 1   
    68    61    68 1   
    69    62    68 1   
    70    65    67 1   
    71    65    68 1   
@<TRIPOS>SUBSTRUCTURE
     1 F7N         1 TEMP              0 ****  ****    0 ROOT
