@<TRIPOS>MOLECULE
molecule
   68    71     1     0     0
SMALL
bcc


@<TRIPOS>ATOM
      1 C4           0.0000     0.0000     0.0000 c3         1 F7N       0.147400
      2 C5           1.5310     0.0000     0.0000 c3         1 F7N      -0.140400
      3 C6           2.0340     0.0000     1.4480 c3         1 F7N       0.106500
      4 C10          8.6910     2.6550     1.7690 c3         1 F7N       0.103000
      5 C13          9.5680    -0.0250     2.1190 ca         1 F7N      -0.250600
      6 C17         11.3510    -1.6150     2.0530 ca         1 F7N      -0.307600
      7 C20          4.7250     1.6400     4.5120 c3         1 F7N      -0.062400
      8 C21          5.9960     0.9800     3.9410 c3         1 F7N      -0.133000
      9 C22          5.5290    -0.0270     2.8760 c3         1 F7N      -0.107400
     10 C24          6.8810     2.0230     3.3110 c          1 F7N       0.669100
     11 C1           1.4530    -1.2140     2.1780 c3         1 F7N       0.086100
     12 C11         10.1300     2.4400     2.2340 c3         1 F7N      -0.148700
     13 C12          8.0860     0.2440     2.1230 c3         1 F7N       0.145300
     14 C14         10.5050     0.9820     2.1610 ca         1 F7N       0.477600
     15 C16         12.2370    -0.5550     2.0890 ca         1 F7N       0.489200
     16 C18          9.9920    -1.3490     2.0680 ca         1 F7N      -0.040000
     17 C19          3.6700     1.4670     3.3900 c3         1 F7N      -0.102400
     18 C2          -0.0750    -1.1670     2.0940 c3         1 F7N       0.126400
     19 C23          3.9890     0.0560     2.8360 c3         1 F7N       0.084500
     20 C29         11.8550    -3.0340     1.9980 c3         1 F7N       0.681200
     21 F30         11.3930    -3.7360     3.1170 f          1 F7N      -0.216967
     22 F31         11.3840    -3.6510     0.8340 f          1 F7N      -0.216967
     23 F32         13.2540    -3.0330     1.9930 f          1 F7N      -0.216967
     24 N15         11.8000     0.6840     2.1400 nb         1 F7N      -0.682000
     25 N33          3.5010    -0.0760     1.4570 ny         1 F7N      -0.723000
     26 N9           7.8430     1.6560     2.4400 n          1 F7N      -0.496800
     27 O28          6.7290     3.1940     3.5870 o          1 F7N      -0.583100
     28 O3          -0.4750    -1.1380     0.7220 os         1 F7N      -0.378600
     29 O7           1.9280    -2.4140     1.5640 os         1 F7N      -0.433600
     30 H37         -0.3600     0.9040     0.4760 h1         1 F7N       0.073700
     31 H38         -0.3600    -0.0450    -1.0210 h1         1 F7N       0.073700
     32 H39          1.8920    -0.8860    -0.5080 hc         1 F7N       0.078200
     33 H40          1.8920     0.8870    -0.5070 hc         1 F7N       0.078200
     34 H41          1.7100     0.9080     1.9420 hx         1 F7N       0.115700
     35 H42          1.7710    -3.2030     3.4610 h1         1 F7N       0.051033
     36 H43          1.3870    -4.3170     2.1410 h1         1 F7N       0.051033
     37 H44          3.0690    -3.8750     2.4640 h1         1 F7N       0.051033
     38 H45          8.3690     3.6470     2.0610 h1         1 F7N       0.076700
     39 H46          8.6390     2.5010     0.6980 h1         1 F7N       0.076700
     40 H55          4.4050     1.1280     5.4120 hc         1 F7N       0.094700
     41 H56          4.9000     2.6910     4.7070 hc         1 F7N       0.094700
     42 H58          5.8370    -1.0280     3.1520 hc         1 F7N       0.073700
     43 H57          5.9380     0.2400     1.9090 hc         1 F7N       0.073700
     44 H62          7.8540     0.8100     6.8130 hc         1 F7N       0.047200
     45 H63          6.2000     1.4340     6.7430 hc         1 F7N       0.047200
     46 H61          7.4660     2.1700     5.7500 hc         1 F7N       0.047200
     47 H34          1.7570    -1.1890     3.2170 h1         1 F7N       0.054700
     48 H47         10.2110     2.7650     3.2640 hc         1 F7N       0.089700
     49 H48         10.7900     2.9980     1.5810 hc         1 F7N       0.089700
     50 H49          7.6230    -0.3690     2.8860 h1         1 F7N       0.055200
     51 H50          7.6920     0.0360     1.1360 h1         1 F7N       0.055200
     52 H51         13.3030    -0.7470     2.0780 h4         1 F7N       0.056100
     53 H52          9.2720    -2.1570     2.0400 ha         1 F7N       0.144000
     54 H53          2.6680     1.5000     3.8000 hc         1 F7N       0.069700
     55 H54          3.8040     2.2190     2.6220 hc         1 F7N       0.069700
     56 H36         -0.4360    -0.2760     2.5930 h1         1 F7N       0.074700
     57 H35         -0.4890    -2.0470     2.5710 h1         1 F7N       0.074700
     58 H59          3.5540    -0.7050     3.4730 hx         1 F7N       0.114700
     59 H60          7.6660    -0.1720     4.6520 hc         1 F7N       0.065700
     60 H65          6.2640    -1.1790     6.5820 hc         1 F7N       0.047200
     61 H66          4.8750    -0.4790     5.7390 hc         1 F7N       0.047200
     62 H64          5.8550    -1.7200     4.9480 hc         1 F7N       0.047200
     63 H67          3.7910    -0.9580     1.0840 hn         1 F7N       0.452800
     64 H68          3.8770     0.6630     0.8980 hn         1 F7N       0.452800
     65 C25          6.7540     0.2510     5.0540 c3         1 F7N      -0.068700
     66 C8           2.0460    -3.5190     2.4620 c3         1 F7N       0.119700
     67 C26          7.0980     1.2410     6.1680 c3         1 F7N      -0.095600
     68 C27          5.8780    -0.8690     5.6180 c3         1 F7N      -0.095600
@<TRIPOS>BOND
     1    18    28 1
     2    18    11 1
     3     1    28 1
     4     1     2 1
     5    11     3 1
     6    11    29 1
     7     3     2 1
     8     3    25 1
     9    17     7 1
    10    17    19 1
    11     7     8 1
    12    27    10 2
    13    25    19 1
    14    29    66 1
    15    19     9 1
    16    10     8 1
    17    10    26 1
    18     8     9 1
    19     8    65 1
    20    13    26 1
    21    13     5 1
    22    68    65 1
    23    26     4 1
    24    65    67 1
    25    16     5 ar
    26    16     6 ar
    27    21    20 1
    28     5    14 ar
    29    22    20 1
    30     4    12 1
    31    20     6 1
    32    20    23 1
    33     6    15 ar
    34    14    12 1
    35    14    24 ar
    36    15    24 ar
    37     1    30 1
    38     1    31 1
    39     2    32 1
    40     2    33 1
    41     3    34 1
    42    66    35 1
    43    66    36 1
    44    66    37 1
    45     4    38 1
    46     4    39 1
    47     7    40 1
    48     7    41 1
    49     9    42 1
    50     9    43 1
    51    67    44 1
    52    67    45 1
    53    67    46 1
    54    11    47 1
    55    12    48 1
    56    12    49 1
    57    13    50 1
    58    13    51 1
    59    15    52 1
    60    16    53 1
    61    17    54 1
    62    17    55 1
    63    18    56 1
    64    18    57 1
    65    19    58 1
    66    65    59 1
    67    68    60 1
    68    68    61 1
    69    68    62 1
    70    25    63 1
    71    25    64 1
@<TRIPOS>SUBSTRUCTURE
     1 F7N         1 TEMP              0 ****  ****    0 ROOT
