@<TRIPOS>MOLECULE
molecule
   62    65     1     0     0
SMALL
bcc


@<TRIPOS>ATOM
      1 C1           0.0000     0.0000     0.0000 c3         1 F82       0.084000
      2 C2           1.5300     0.0000     0.0000 c3         1 F82      -0.110100
      3 C3           0.0980     0.0000     2.5140 cc         1 F82      -0.161300
      4 O4          -8.2380    -5.3990    13.5630 os         1 F82      -0.312900
      5 C7          -0.9950    -0.7960     7.2640 c3         1 F82      -0.098100
      6 C8          -2.0780    -1.5010     8.0380 ca         1 F82      -0.095300
      7 C9          -3.1690    -0.7910     8.5030 ca         1 F82      -0.068000
      8 C10         -4.1630    -1.4350     9.2140 ca         1 F82      -0.160000
      9 C11         -4.0690    -2.7980     9.4620 ca         1 F82       0.147100
     10 C12         -2.9760    -3.5130     8.9960 ca         1 F82      -0.215000
     11 C13         -1.9830    -2.8650     8.2780 ca         1 F82       0.170100
     12 C14         -0.8790    -4.9630     8.0990 c3         1 F82       0.127700
     13 C15         -6.2490    -3.6010     9.5620 ca         1 F82       0.704600
     14 C16         -7.3440    -4.1380    10.2730 ca         1 F82      -0.282600
     15 C19         -9.5550    -5.1830    11.5830 ca         1 F82       0.167100
     16 C20         -9.6800    -4.8210    10.2710 ca         1 F82      -0.273300
     17 C21         -8.5760    -4.2910     9.5900 ca         1 F82       0.477600
     18 C22         -7.5950    -3.4370     7.6910 ca         1 F82       0.717900
     19 C24         -6.9690    -5.2190    14.1960 c3         1 F82       0.125700
     20 O           -2.2350    -1.5460     5.4010 o          1 F82      -0.591100
     21 C6          -1.2610    -0.9340     5.7870 c          1 F82       0.663100
     22 C4          -0.6650    -0.5070     3.5150 cd         1 F82      -0.160700
     23 C5          -1.7470    -1.1820     2.9300 cd         1 F82       0.339200
     24 N1          -1.6390    -1.0850     1.6300 nc         1 F82      -0.508800
     25 N           -0.4890    -0.3410     1.3380 na         1 F82       0.063400
     26 C           -0.5090     1.3890    -0.3900 c3         1 F82      -0.110100
     27 O1          -0.9130    -3.5630     7.8150 os         1 F82      -0.326900
     28 O2          -5.0470    -3.4310    10.1610 os         1 F82      -0.356400
     29 N4          -6.4270    -3.2710     8.2910 nb         1 F82      -0.812000
     30 N3          -8.6490    -3.9210     8.3030 nb         1 F82      -0.756000
     31 O3         -10.6250    -5.6960    12.2420 os         1 F82      -0.308900
     32 C23        -11.8410    -5.8280    11.5020 c3         1 F82       0.123700
     33 C18         -8.3340    -5.0300    12.2580 ca         1 F82       0.115100
     34 C17         -7.2420    -4.5170    11.6180 ca         1 F82      -0.163000
     35 H1          -0.3610    -0.7300    -0.7140 h1         1 F82       0.082700
     36 H2           1.8910     0.8690     0.5370 hc         1 F82       0.047033
     37 H3           1.8910    -0.8990     0.4840 hc         1 F82       0.047033
     38 H4           1.8910     0.0310    -1.0210 hc         1 F82       0.047033
     39 H5           0.9510     0.6560     2.6340 h4         1 F82       0.164000
     40 H6          -0.9850     0.2540     7.5320 hc         1 F82       0.069700
     41 H7          -0.0350    -1.2380     7.5010 hc         1 F82       0.069700
     42 H8          -3.2440     0.2720     8.3110 ha         1 F82       0.139000
     43 H9          -5.0170    -0.8770     9.5780 ha         1 F82       0.143000
     44 H10         -2.9020    -4.5770     9.1860 ha         1 F82       0.147000
     45 H11         -0.8850    -5.1150     9.1710 h1         1 F82       0.043700
     46 H12          0.0200    -5.3960     7.6780 h1         1 F82       0.043700
     47 H13         -1.7480    -5.4410     7.6620 h1         1 F82       0.043700
     48 H14        -10.5930    -5.0440     9.7320 ha         1 F82       0.164000
     49 H15         -7.6870    -3.1510     6.6500 h5         1 F82       0.062100
     50 H16         -7.0370    -5.5220    15.2340 h1         1 F82       0.044033
     51 H17         -6.2250    -5.8230    13.6920 h1         1 F82       0.044033
     52 H18         -6.6830    -4.1750    14.1420 h1         1 F82       0.044033
     53 H19          0.3680     0.1550     5.2140 hn         1 F82       0.317500
     54 H20         -2.5360    -1.6980     3.4640 h4         1 F82       0.093100
     55 H21         -0.0910     1.6710    -1.3480 hc         1 F82       0.047033
     56 H22         -0.2060     2.1090     0.3620 hc         1 F82       0.047033
     57 H23         -1.5900     1.3720    -0.4580 hc         1 F82       0.047033
     58 H24        -11.6860    -6.5050    10.6700 h1         1 F82       0.046367
     59 H25        -12.6160    -6.2230    12.1490 h1         1 F82       0.046367
     60 H26        -12.1430    -4.8580    11.1270 h1         1 F82       0.046367
     61 H27         -6.2770    -4.5160    12.1100 ha         1 F82       0.158000
     62 N2          -0.4170    -0.3770     4.8950 ns         1 F82      -0.452100
@<TRIPOS>BOND
     1    24    23 2
     2    24    25 1
     3    23    22 1
     4     2     1 1
     5     1    25 1
     6     1    26 1
     7    25     3 1
     8    22     3 2
     9    22    62 1
    10    62    21 1
    11    21     5 1
    12    21    20 2
    13    12    27 1
    14    27    11 1
    15     5     6 1
    16    11     6 ar
    17    11    10 ar
    18     6     7 ar
    19    10     9 ar
    20     7     8 ar
    21     9     8 ar
    22     9    28 1
    23    29    18 ar
    24    29    13 ar
    25    18    30 ar
    26    28    13 1
    27    13    14 ar
    28    30    17 ar
    29    14    17 ar
    30    14    34 ar
    31    17    16 ar
    32    34    33 ar
    33    16    15 ar
    34    33    15 ar
    35    33     4 1
    36    15    31 1
    37     4    19 1
    38    31    32 1
    39     1    35 1
    40     2    36 1
    41     2    37 1
    42     2    38 1
    43     3    39 1
    44     5    40 1
    45     5    41 1
    46     7    42 1
    47     8    43 1
    48    10    44 1
    49    12    45 1
    50    12    46 1
    51    12    47 1
    52    16    48 1
    53    18    49 1
    54    19    50 1
    55    19    51 1
    56    19    52 1
    57    62    53 1
    58    23    54 1
    59    26    55 1
    60    26    56 1
    61    26    57 1
    62    32    58 1
    63    32    59 1
    64    32    60 1
    65    34    61 1
@<TRIPOS>SUBSTRUCTURE
     1 F82         1 TEMP              0 ****  ****    0 ROOT
