@<TRIPOS>MOLECULE
F83
   40    42     1     0     0
SMALL
bcc


@<TRIPOS>ATOM
      1 O1           0.0000     0.0000     0.0000 oh         1 F83      -0.600800
      2 C1           1.4290     0.0000     0.0000 c3         1 F83       0.221400
      3 C2           1.9390     0.0000     1.4430 c3         1 F83       0.097500
      4 N1           1.5660     1.2620     2.0980 n7         1 F83      -0.575200
      5 C3           1.7640     1.0630     3.5350 c3         1 F83       0.206100
      6 C4           3.1790     0.6390     3.8260 ca         1 F83      -0.117300
      7 C5           3.6800     0.8180     5.1060 ca         1 F83       0.011000
      8 C6           4.9730     0.4380     5.4070 ca         1 F83      -0.165500
      9 C7           5.7710    -0.1250     4.4290 ca         1 F83       0.007000
     10 C8           5.2740    -0.3020     3.1530 ca         1 F83      -0.136000
     11 C9           3.9780     0.0800     2.8510 ca         1 F83      -0.017300
     12 C10          3.4630    -0.1250     1.4480 c3         1 F83       0.032900
     13 S1           5.6020     0.6670     7.0370 sy         1 F83       1.041200
     14 O2           6.6240    -0.3080     7.1950 o          1 F83      -0.585300
     15 O3           4.4630     0.8080     7.8740 o          1 F83      -0.585300
     16 N2           6.3700     2.1340     7.0690 nu         1 F83      -0.420500
     17 C11          7.5100     2.3430     6.2880 ca         1 F83       0.044600
     18 C12          7.4300     3.1040     5.1300 ca         1 F83      -0.089500
     19 C13          8.5590     3.3090     4.3600 ca         1 F83      -0.094500
     20 C14          9.7680     2.7570     4.7420 ca         1 F83      -0.034600
     21 C15          9.8510     1.9970     5.8960 ca         1 F83      -0.094500
     22 C16          8.7270     1.7940     6.6720 ca         1 F83      -0.089500
     23 Cl1         11.1840     3.0170     3.7720 cl         1 F83      -0.026400
     24 HO1         -0.3140    -0.1640    -0.8740 ho         1 F83       0.397000
     25 H11          1.7900     0.8850    -0.5110 h1         1 F83      -0.004800
     26 H12A         1.7900    -0.8850    -0.5110 h1         1 F83      -0.004800
     27 H2           1.5060    -0.8310     1.9860 h1         1 F83       0.025700
     28 HN1          0.6010     1.4590     1.9180 hn         1 F83       0.274800
     29 H31          1.5750     2.0020     4.0410 h1         1 F83       0.017700
     30 H32          1.0930     0.2810     3.8700 h1         1 F83       0.017700
     31 H5           3.0550     1.2580     5.8730 ha         1 F83       0.125000
     32 H7           6.7860    -0.4240     4.6630 ha         1 F83       0.124000
     33 H8           5.9000    -0.7430     2.3860 ha         1 F83       0.112000
     34 H101         3.8790     0.6430     0.8080 hc         1 F83       0.032200
     35 H102         3.7330    -1.1220     1.1200 hc         1 F83       0.032200
     36 HN2          6.0370     2.8600     7.6710 hn         1 F83       0.349800
     37 H12          6.4830     3.5370     4.8300 ha         1 F83       0.121500
     38 H13          8.4970     3.9040     3.4560 ha         1 F83       0.116500
     39 H15         10.7990     1.5670     6.1940 ha         1 F83       0.116500
     40 H16          8.7920     1.1990     7.5750 ha         1 F83       0.121500
@<TRIPOS>BOND
     1     1     2 1   
     2     1    24 1   
     3     2     3 1   
     4     2    25 1   
     5     2    26 1   
     6     3     4 1   
     7     3    12 1   
     8     3    27 1   
     9     4     5 1   
    10     4    28 1   
    11     5     6 1   
    12     5    29 1   
    13     5    30 1   
    14     6     7 ar  
    15     6    11 ar  
    16     7     8 ar  
    17     7    31 1   
    18     8     9 ar  
    19     8    13 1   
    20     9    10 ar  
    21     9    32 1   
    22    10    11 ar  
    23    10    33 1   
    24    11    12 1   
    25    12    34 1   
    26    12    35 1   
    27    13    14 2   
    28    13    15 2   
    29    13    16 1   
    30    16    17 1   
    31    16    36 1   
    32    17    18 ar  
    33    17    22 ar  
    34    18    19 ar  
    35    18    37 1   
    36    19    20 ar  
    37    19    38 1   
    38    20    21 ar  
    39    20    23 1   
    40    21    22 ar  
    41    21    39 1   
    42    22    40 1   
@<TRIPOS>SUBSTRUCTURE
     1 F83         1 TEMP              0 ****  ****    0 ROOT
