@<TRIPOS>MOLECULE
molecule
   53    54     1     0     0
SMALL
bcc


@<TRIPOS>ATOM
      1 C1           0.0000     0.0000     0.0000 c3         1 F85       0.333500
      2 N1          -0.4900     0.0580    -1.3800 ns         1 F85      -0.580900
      3 C2           1.5300     0.0000     0.0000 c3         1 F85       0.095100
      4 N2          -2.0660    -0.5450    -2.9920 ns         1 F85      -0.590500
      5 O2           2.0080    -1.1680    -0.6720 oh         1 F85      -0.589800
      6 C3           2.0340     0.0000     1.4460 c3         1 F85       0.113100
      7 O3           3.4600     0.0740     1.4550 oh         1 F85      -0.607800
      8 C4           1.4520     1.2150     2.1770 c3         1 F85       0.100100
      9 O4           1.8580     1.1870     3.5470 oh         1 F85      -0.599800
     10 C5          -0.0740     1.1680     2.0940 c3         1 F85       0.154100
     11 O5          -0.4750     1.1380     0.7230 os         1 F85      -0.418600
     12 C6          -0.6610     2.4090     2.7700 c3         1 F85       0.152400
     13 O6          -2.0870     2.3090     2.7950 oh         1 F85      -0.591800
     14 C7          -1.6170    -0.5980    -1.7230 c          1 F85       0.781100
     15 O7          -2.2250    -1.2370    -0.8880 o          1 F85      -0.572100
     16 C8          -3.1920    -1.2010    -3.3360 c          1 F85       0.675700
     17 O8          -3.8020    -1.8400    -2.5010 o          1 F85      -0.519100
     18 C9          -3.6860    -1.1430    -4.7270 ca         1 F85      -0.156600
     19 C10         -4.8520    -1.8210    -5.0860 ca         1 F85      -0.082500
     20 C11         -5.3080    -1.7630    -6.3870 ca         1 F85      -0.137500
     21 C12         -4.6100    -1.0350    -7.3350 ca         1 F85      -0.043300
     22 C13         -3.4540    -0.3610    -6.9860 ca         1 F85      -0.137500
     23 C14         -2.9910    -0.4060    -5.6880 ca         1 F85      -0.082500
     24 C15         -5.1130    -0.9750    -8.7550 c3         1 F85      -0.028700
     25 C16         -6.5150    -0.3640    -8.7740 c3         1 F85      -0.081100
     26 C17         -4.1690    -0.1130    -9.5950 c3         1 F85      -0.081100
     27 C18         -5.1650    -2.3900    -9.3360 c3         1 F85      -0.081100
     28 H1          -0.3590    -0.9040     0.4780 h2         1 F85       0.100700
     29 HN1          0.0060     0.5930    -2.0650 hn         1 F85       0.306500
     30 H2           1.8900     0.8870    -0.5070 h1         1 F85       0.049700
     31 HN2         -1.5810     0.0070    -3.6720 hn         1 F85       0.313500
     32 HO2          2.7210    -0.9330    -1.2420 ho         1 F85       0.411000
     33 H3           1.7100    -0.9080     1.9410 h1         1 F85       0.067700
     34 HO3          3.8110    -0.6720     1.9130 ho         1 F85       0.417000
     35 H4           1.8110     2.1230     1.7070 h1         1 F85       0.053700
     36 HO4          2.5380     1.8240     3.6870 ho         1 F85       0.413000
     37 H5          -0.4340     0.2760     2.5920 h1         1 F85       0.071700
     38 H6          -0.3710     3.2940     2.2160 h1         1 F85       0.034200
     39 H6A         -0.2860     2.4790     3.7840 h1         1 F85       0.034200
     40 HO6         -2.4400     2.9960     3.3360 ho         1 F85       0.402000
     41 H10         -5.3990    -2.3910    -4.3450 ha         1 F85       0.139000
     42 H11         -6.2130    -2.2880    -6.6670 ha         1 F85       0.140000
     43 H13         -2.9140     0.2090    -7.7330 ha         1 F85       0.140000
     44 H14         -2.0850     0.1220    -5.4160 ha         1 F85       0.139000
     45 H16         -7.2180    -1.0590    -8.3320 hc         1 F85       0.038478
     46 H16A        -6.5150     0.5590    -8.2070 hc         1 F85       0.038478
     47 H16B        -6.8060    -0.1590    -9.7970 hc         1 F85       0.038478
     48 H17         -4.1320     0.8880    -9.1840 hc         1 F85       0.038478
     49 H17A        -4.5300    -0.0710   -10.6150 hc         1 F85       0.038478
     50 H17B        -3.1760    -0.5460    -9.5810 hc         1 F85       0.038478
     51 H18         -5.9590    -2.9490    -8.8560 hc         1 F85       0.038478
     52 H18A        -4.2180    -2.8870    -9.1630 hc         1 F85       0.038478
     53 H18B        -5.3540    -2.3360   -10.4020 hc         1 F85       0.038478
@<TRIPOS>BOND
     1     1     2 1
     2     1     3 1
     3     1    11 1
     4     2    14 1
     5     3     5 1
     6     3     6 1
     7     4    14 1
     8     4    16 1
     9     6     7 1
    10     6     8 1
    11     8     9 1
    12     8    10 1
    13    10    11 1
    14    10    12 1
    15    12    13 1
    16    14    15 2
    17    16    17 2
    18    16    18 1
    19    18    19 ar
    20    18    23 ar
    21    19    20 ar
    22    20    21 ar
    23    21    22 ar
    24    21    24 1
    25    22    23 ar
    26    24    25 1
    27    24    26 1
    28    24    27 1
    29     1    28 1
    30     2    29 1
    31     3    30 1
    32     4    31 1
    33     5    32 1
    34     6    33 1
    35     7    34 1
    36     8    35 1
    37     9    36 1
    38    10    37 1
    39    12    38 1
    40    12    39 1
    41    13    40 1
    42    19    41 1
    43    20    42 1
    44    22    43 1
    45    23    44 1
    46    25    45 1
    47    25    46 1
    48    25    47 1
    49    26    48 1
    50    26    49 1
    51    26    50 1
    52    27    51 1
    53    27    52 1
    54    27    53 1
@<TRIPOS>SUBSTRUCTURE
     1 F85         1 TEMP              0 ****  ****    0 ROOT
