@<TRIPOS>MOLECULE
F85
   53    54     1     0     0
SMALL
bcc


@<TRIPOS>ATOM
      1 C1           0.0000     0.0000     0.0000 c3         1 F85       0.235500
      2 N1          -0.4900     0.0580    -1.3800 ns         1 F85      -0.194900
      3 C2           1.5300     0.0000     0.0000 c3         1 F85       0.129100
      4 N2          -2.0660    -0.5450    -2.9920 ns         1 F85      -0.179500
      5 O2           2.0080    -1.1680    -0.6720 oh         1 F85      -0.573800
      6 C3           2.0340     0.0000     1.4460 c3         1 F85       0.150100
      7 O3           3.4600     0.0740     1.4550 oh         1 F85      -0.590800
      8 C4           1.4520     1.2150     2.1770 c3         1 F85       0.138100
      9 O4           1.8580     1.1870     3.5470 oh         1 F85      -0.579800
     10 C5          -0.0740     1.1680     2.0940 c3         1 F85       0.173100
     11 O5          -0.4750     1.1380     0.7230 os         1 F85      -0.400600
     12 C6          -0.6610     2.4090     2.7700 c3         1 F85       0.225400
     13 O6          -2.0870     2.3090     2.7950 oh         1 F85      -0.575800
     14 C7          -1.6170    -0.5980    -1.7230 c          1 F85       0.568100
     15 O7          -2.2250    -1.2370    -0.8880 o          1 F85      -0.610100
     16 C8          -3.1920    -1.2010    -3.3360 c          1 F85       0.588700
     17 O8          -3.8020    -1.8400    -2.5010 o          1 F85      -0.549100
     18 C9          -3.6860    -1.1430    -4.7270 ca         1 F85      -0.170600
     19 C10         -4.8520    -1.8210    -5.0860 ca         1 F85      -0.054000
     20 C11         -5.3080    -1.7630    -6.3870 ca         1 F85      -0.118000
     21 C12         -4.6100    -1.0350    -7.3350 ca         1 F85      -0.049300
     22 C13         -3.4540    -0.3610    -6.9860 ca         1 F85      -0.118000
     23 C14         -2.9910    -0.4060    -5.6880 ca         1 F85      -0.054000
     24 C15         -5.1130    -0.9750    -8.7550 c3         1 F85      -0.019700
     25 C16         -6.5150    -0.3640    -8.7740 c3         1 F85       0.005567
     26 C17         -4.1690    -0.1130    -9.5950 c3         1 F85       0.005567
     27 C18         -5.1650    -2.3900    -9.3360 c3         1 F85       0.005567
     28 H1          -0.3590    -0.9040     0.4780 h2         1 F85       0.066700
     29 HN1          0.0060     0.5930    -2.0650 hn         1 F85       0.161500
     30 H2           1.8900     0.8870    -0.5070 h1         1 F85       0.016700
     31 HN2         -1.5810     0.0070    -3.6720 hn         1 F85       0.168500
     32 HO2          2.7210    -0.9330    -1.2420 ho         1 F85       0.396000
     33 H3           1.7100    -0.9080     1.9410 h1         1 F85       0.031700
     34 HO3          3.8110    -0.6720     1.9130 ho         1 F85       0.403000
     35 H4           1.8110     2.1230     1.7070 h1         1 F85       0.018700
     36 HO4          2.5380     1.8240     3.6870 ho         1 F85       0.398000
     37 H5          -0.4340     0.2760     2.5920 h1         1 F85       0.037700
     38 H6          -0.3710     3.2940     2.2160 h1         1 F85      -0.004800
     39 H6A         -0.2860     2.4790     3.7840 h1         1 F85      -0.004800
     40 HO6         -2.4400     2.9960     3.3360 ho         1 F85       0.387000
     41 H10         -5.3990    -2.3910    -4.3450 ha         1 F85       0.112000
     42 H11         -6.2130    -2.2880    -6.6670 ha         1 F85       0.118500
     43 H13         -2.9140     0.2090    -7.7330 ha         1 F85       0.118500
     44 H14         -2.0850     0.1220    -5.4160 ha         1 F85       0.112000
     45 H16         -7.2180    -1.0590    -8.3320 hc         1 F85       0.008144
     46 H16A        -6.5150     0.5590    -8.2070 hc         1 F85       0.008144
     47 H16B        -6.8060    -0.1590    -9.7970 hc         1 F85       0.008144
     48 H17         -4.1320     0.8880    -9.1840 hc         1 F85       0.008144
     49 H17A        -4.5300    -0.0710   -10.6150 hc         1 F85       0.008144
     50 H17B        -3.1760    -0.5460    -9.5810 hc         1 F85       0.008144
     51 H18         -5.9590    -2.9490    -8.8560 hc         1 F85       0.008144
     52 H18A        -4.2180    -2.8870    -9.1630 hc         1 F85       0.008144
     53 H18B        -5.3540    -2.3360   -10.4020 hc         1 F85       0.008144
@<TRIPOS>BOND
     1     1     2 1   
     2     1     3 1   
     3     1    11 1   
     4     1    28 1   
     5     2    14 1   
     6     2    29 1   
     7     3     5 1   
     8     3     6 1   
     9     3    30 1   
    10     4    14 1   
    11     4    16 1   
    12     4    31 1   
    13     5    32 1   
    14     6     7 1   
    15     6     8 1   
    16     6    33 1   
    17     7    34 1   
    18     8     9 1   
    19     8    10 1   
    20     8    35 1   
    21     9    36 1   
    22    10    11 1   
    23    10    12 1   
    24    10    37 1   
    25    12    13 1   
    26    12    38 1   
    27    12    39 1   
    28    13    40 1   
    29    14    15 2   
    30    16    17 2   
    31    16    18 1   
    32    18    19 ar  
    33    18    23 ar  
    34    19    20 ar  
    35    19    41 1   
    36    20    21 ar  
    37    20    42 1   
    38    21    22 ar  
    39    21    24 1   
    40    22    23 ar  
    41    22    43 1   
    42    23    44 1   
    43    24    25 1   
    44    24    26 1   
    45    24    27 1   
    46    25    45 1   
    47    25    46 1   
    48    25    47 1   
    49    26    48 1   
    50    26    49 1   
    51    26    50 1   
    52    27    51 1   
    53    27    52 1   
    54    27    53 1   
@<TRIPOS>SUBSTRUCTURE
     1 F85         1 TEMP              0 ****  ****    0 ROOT
