@<TRIPOS>MOLECULE
molecule
   53    55     1     0     0
SMALL
bcc


@<TRIPOS>ATOM
      1 N2           0.0000     0.0000     0.0000 nb         1 F87      -0.784000
      2 C3           0.0150     0.0010     2.3330 ca         1 F87      -0.257000
      3 C4           1.4140    -0.0010     2.3000 ca         1 F87       0.670200
      4 C5           0.0430     0.3660     4.6690 c          1 F87       0.708500
      5 C6           1.4860     0.7780     4.5310 c3         1 F87       0.104500
      6 C8          -2.1700    -1.8230     3.8920 c1         1 F87      -0.179100
      7 C9          -2.2630    -2.9760     4.0960 c1         1 F87      -0.112500
      8 C11          3.4940     1.9320     2.8430 c3         1 F87      -0.118400
      9 C12          4.9260     2.4150     2.6090 c3         1 F87      -0.070700
     10 C15          2.2100     0.5450     5.8590 c3         1 F87      -0.083100
     11 C16          1.2780    -0.1170    -2.4100 ca         1 F87       0.210600
     12 C17          1.7240     0.5310    -3.5540 ca         1 F87      -0.198000
     13 C18          1.0180     0.4100    -4.7370 ca         1 F87       0.155900
     14 C19         -0.1350    -0.3600    -4.7820 ca         1 F87       0.005100
     15 C20         -0.5810    -1.0090    -3.6390 ca         1 F87       0.155900
     16 C21          0.1240    -0.8890    -2.4560 ca         1 F87      -0.198000
     17 N1           2.0270     0.0000     1.1230 nb         1 F87      -0.809000
     18 C1           1.3250     0.0000     0.0000 ca         1 F87       0.935900
     19 C2          -0.6820     0.0010     1.1390 ca         1 F87       0.478200
     20 N3          -0.6520     0.0050     3.5670 n          1 F87      -0.364000
     21 N4           2.1390    -0.0060     3.4780 nh         1 F87      -0.681300
     22 O1          -0.4900     0.3600     5.7590 o          1 F87      -0.610500
     23 C13          5.5260     1.6720     1.4120 c3         1 F87      -0.088100
     24 C14          4.9170     3.9180     2.3210 c3         1 F87      -0.088100
     25 N5           1.9950     0.0010    -1.2140 nu         1 F87      -0.754300
     26 F1          -1.7050    -1.7580    -3.6820 f          1 F87      -0.123400
     27 F2           1.4520     1.0420    -5.8500 f          1 F87      -0.123400
     28 O2          -0.8290    -0.4790    -5.9470 oh         1 F87      -0.494100
     29 H1           1.5330     1.8290     4.2730 h1         1 F87       0.066700
     30 H2          -2.5680    -0.1190     2.7350 h1         1 F87       0.079200
     31 H3          -2.5280     0.1590     4.4810 h1         1 F87       0.079200
     32 H4          -2.3580    -4.0410     4.2670 ha         1 F87       0.168500
     33 H5           3.9680    -0.1290     2.4640 h1         1 F87       0.075700
     34 H6           4.0880     0.3440     4.1640 h1         1 F87       0.075700
     35 H7           3.0390     2.5190     3.6320 hc         1 F87       0.050200
     36 H8           2.9200     2.0460     1.9320 hc         1 F87       0.050200
     37 H9           5.5230     2.2200     3.4910 hc         1 F87       0.048700
     38 H10          2.4260    -0.5110     5.9720 hc         1 F87       0.057700
     39 H11          3.1360     1.1060     5.8690 hc         1 F87       0.057700
     40 H12          1.5790     0.8740     6.6760 hc         1 F87       0.057700
     41 H13          2.6250     1.1330    -3.5190 ha         1 F87       0.166000
     42 H14         -0.2250    -1.3960    -1.5640 ha         1 F87       0.166000
     43 H15         -1.7660     0.0010     1.1330 h4         1 F87       0.041100
     44 H16          6.4550     2.1460     1.1210 hc         1 F87       0.035367
     45 H17          4.8300     1.7020     0.5820 hc         1 F87       0.035367
     46 H18          5.7160     0.6410     1.6860 hc         1 F87       0.035367
     47 H19          5.9300     4.2580     2.1410 hc         1 F87       0.035367
     48 H20          4.5050     4.4460     3.1730 hc         1 F87       0.035367
     49 H21          4.3090     4.1140     1.4460 hc         1 F87       0.035367
     50 H22          2.9940     0.0610    -1.2340 hn         1 F87       0.470800
     51 H23         -0.5080    -1.2230    -6.4290 ho         1 F87       0.420000
     52 C7          -2.0650    -0.3730     3.6590 c3         1 F87       0.201100
     53 C10          3.5140     0.4580     3.2520 c3         1 F87       0.167800
@<TRIPOS>BOND
     1     7     6 3
     2     1    19 ar
     3     1    18 ar
     4     6    52 1
     5    25    18 1
     6    25    11 1
     7    19     2 ar
     8    16    11 ar
     9    16    15 ar
    10    18    17 ar
    11    11    12 ar
    12    26    15 1
    13    52    20 1
    14    15    14 ar
    15     2    20 1
    16     2     3 ar
    17    12    13 ar
    18    17     3 ar
    19    20     4 1
    20    14    13 ar
    21    14    28 1
    22     3    21 1
    23    13    27 1
    24     4    22 2
    25     4     5 1
    26    21     5 1
    27    21    53 1
    28     5    10 1
    29    53     8 1
    30     8     9 1
    31     9    24 1
    32     9    23 1
    33     5    29 1
    34    52    30 1
    35    52    31 1
    36     7    32 1
    37    53    33 1
    38    53    34 1
    39     8    35 1
    40     8    36 1
    41     9    37 1
    42    10    38 1
    43    10    39 1
    44    10    40 1
    45    12    41 1
    46    16    42 1
    47    19    43 1
    48    23    44 1
    49    23    45 1
    50    23    46 1
    51    24    47 1
    52    24    48 1
    53    24    49 1
    54    25    50 1
    55    28    51 1
@<TRIPOS>SUBSTRUCTURE
     1 F87         1 TEMP              0 ****  ****    0 ROOT
