@<TRIPOS>MOLECULE
F87
   53    55     1     0     0
SMALL
bcc


@<TRIPOS>ATOM
      1 N2           0.0000     0.0000     0.0000 nb         1 F87      -0.687000
      2 C3           0.0150     0.0010     2.3330 ca         1 F87      -0.398000
      3 C4           1.4140    -0.0010     2.3000 ca         1 F87       0.546200
      4 C5           0.0430     0.3660     4.6690 c          1 F87       0.615500
      5 C6           1.4860     0.7780     4.5310 c3         1 F87       0.037500
      6 C8          -2.1700    -1.8230     3.8920 c1         1 F87      -0.204100
      7 C9          -2.2630    -2.9760     4.0960 c1         1 F87      -0.076500
      8 C11          3.4940     1.9320     2.8430 c3         1 F87      -0.075400
      9 C12          4.9260     2.4150     2.6090 c3         1 F87      -0.043700
     10 C15          2.2100     0.5450     5.8590 c3         1 F87       0.001900
     11 C16          1.2780    -0.1170    -2.4100 ca         1 F87       0.042600
     12 C17          1.7240     0.5310    -3.5540 ca         1 F87      -0.158000
     13 C18          1.0180     0.4100    -4.7370 ca         1 F87       0.119400
     14 C19         -0.1350    -0.3600    -4.7820 ca         1 F87       0.045100
     15 C20         -0.5810    -1.0090    -3.6390 ca         1 F87       0.119400
     16 C21          0.1240    -0.8890    -2.4560 ca         1 F87      -0.158000
     17 N1           2.0270     0.0000     1.1230 nb         1 F87      -0.699000
     18 C1           1.3250     0.0000     0.0000 ca         1 F87       0.705900
     19 C2          -0.6820     0.0010     1.1390 ca         1 F87       0.472200
     20 N3          -0.6520     0.0050     3.5670 n          1 F87       0.031000
     21 N4           2.1390    -0.0060     3.4780 nh         1 F87      -0.428300
     22 O1          -0.4900     0.3600     5.7590 o          1 F87      -0.649500
     23 C13          5.5260     1.6720     1.4120 c3         1 F87       0.003400
     24 C14          4.9170     3.9180     2.3210 c3         1 F87       0.003400
     25 N5           1.9950     0.0010    -1.2140 nu         1 F87      -0.288300
     26 F1          -1.7050    -1.7580    -3.6820 f          1 F87      -0.116900
     27 F2           1.4520     1.0420    -5.8500 f          1 F87      -0.116900
     28 O2          -0.8290    -0.4790    -5.9470 oh         1 F87      -0.472100
     29 H1           1.5330     1.8290     4.2730 h1         1 F87       0.046700
     30 H2          -2.5680    -0.1190     2.7350 h1         1 F87       0.042700
     31 H3          -2.5280     0.1590     4.4810 h1         1 F87       0.042700
     32 H4          -2.3580    -4.0410     4.2670 ha         1 F87       0.140500
     33 H5           3.9680    -0.1290     2.4640 h1         1 F87       0.048700
     34 H6           4.0880     0.3440     4.1640 h1         1 F87       0.048700
     35 H7           3.0390     2.5190     3.6320 hc         1 F87       0.029200
     36 H8           2.9200     2.0460     1.9320 hc         1 F87       0.029200
     37 H9           5.5230     2.2200     3.4910 hc         1 F87       0.025700
     38 H10          2.4260    -0.5110     5.9720 hc         1 F87       0.023033
     39 H11          3.1360     1.1060     5.8690 hc         1 F87       0.023033
     40 H12          1.5790     0.8740     6.6760 hc         1 F87       0.023033
     41 H13          2.6250     1.1330    -3.5190 ha         1 F87       0.141000
     42 H14         -0.2250    -1.3960    -1.5640 ha         1 F87       0.141000
     43 H15         -1.7660     0.0010     1.1330 h4         1 F87      -0.001900
     44 H16          6.4550     2.1460     1.1210 hc         1 F87       0.004533
     45 H17          4.8300     1.7020     0.5820 hc         1 F87       0.004533
     46 H18          5.7160     0.6410     1.6860 hc         1 F87       0.004533
     47 H19          5.9300     4.2580     2.1410 hc         1 F87       0.004533
     48 H20          4.5050     4.4460     3.1730 hc         1 F87       0.004533
     49 H21          4.3090     4.1140     1.4460 hc         1 F87       0.004533
     50 H22          2.9940     0.0610    -1.2340 hn         1 F87       0.297800
     51 H23         -0.5080    -1.2230    -6.4290 ho         1 F87       0.404000
     52 C7          -2.0650    -0.3730     3.6590 c3         1 F87       0.171100
     53 C10          3.5140     0.4580     3.2520 c3         1 F87       0.123800
@<TRIPOS>BOND
     1     1    18 ar  
     2     1    19 ar  
     3     2     3 ar  
     4     2    19 ar  
     5     2    20 1   
     6     3    17 ar  
     7     3    21 1   
     8     4     5 1   
     9     4    20 1   
    10     4    22 2   
    11     5    10 1   
    12     5    21 1   
    13     5    29 1   
    14     6     7 3   
    15     6    52 1   
    16     7    32 1   
    17     8     9 1   
    18     8    35 1   
    19     8    36 1   
    20     8    53 1   
    21     9    23 1   
    22     9    24 1   
    23     9    37 1   
    24    10    38 1   
    25    10    39 1   
    26    10    40 1   
    27    11    12 ar  
    28    11    16 ar  
    29    11    25 1   
    30    12    13 ar  
    31    12    41 1   
    32    13    14 ar  
    33    13    27 1   
    34    14    15 ar  
    35    14    28 1   
    36    15    16 ar  
    37    15    26 1   
    38    16    42 1   
    39    17    18 ar  
    40    18    25 1   
    41    19    43 1   
    42    20    52 1   
    43    21    53 1   
    44    23    44 1   
    45    23    45 1   
    46    23    46 1   
    47    24    47 1   
    48    24    48 1   
    49    24    49 1   
    50    25    50 1   
    51    28    51 1   
    52    30    52 1   
    53    31    52 1   
    54    33    53 1   
    55    34    53 1   
@<TRIPOS>SUBSTRUCTURE
     1 F87         1 TEMP              0 ****  ****    0 ROOT
