@<TRIPOS>MOLECULE
F88
   55    58     1     0     0
SMALL
bcc


@<TRIPOS>ATOM
      1 C1           0.0000     0.0000     0.0000 c3         1 F88      -0.006700
      2 C2           2.4220     0.0000     0.6550 cc         1 F88      -0.228300
      3 C3           3.6070     0.0000     0.0000 cd         1 F88      -0.313600
      4 C7           7.0070    -2.9940     1.6860 ca         1 F88      -0.090400
      5 C8           6.6370    -4.0220     0.8290 ca         1 F88      -0.105000
      6 C9           7.0170    -5.3200     1.1030 ca         1 F88      -0.087500
      7 C10          7.7690    -5.5990     2.2340 ca         1 F88       0.095100
      8 C11          8.1400    -4.5730     3.0920 ca         1 F88      -0.087500
      9 C12          7.7590    -3.2740     2.8190 ca         1 F88      -0.105000
     10 C13          9.1590    -7.4080     1.7840 ca         1 F88       0.672600
     11 C14          9.5240    -8.7650     1.9360 ca         1 F88      -0.282600
     12 C15          8.8580    -9.6170     2.8250 ca         1 F88      -0.150000
     13 C16          9.2490   -10.9210     2.9340 ca         1 F88       0.120100
     14 C19         10.6010    -9.2590     1.1560 ca         1 F88       0.440600
     15 C20         10.8390    -7.1710     0.2150 ca         1 F88       0.666900
     16 C21         11.7760   -13.1610     1.4870 c3         1 F88       0.239700
     17 C22          7.5260   -11.1840     4.5510 c3         1 F88       0.239700
     18 O            4.7090    -2.3460     0.5090 o          1 F88      -0.622100
     19 C6           5.4250    -1.4260     0.8460 c          1 F88       0.553100
     20 C5           4.9710    -0.0040     0.6370 c3         1 F88       0.014900
     21 C4           3.3380     0.0040    -1.3720 cd         1 F88       0.411200
     22 N1           2.0400     0.0060    -1.5360 nc         1 F88      -0.649800
     23 N            1.4400     0.0030    -0.2710 na         1 F88       0.492400
     24 C           -0.6550     1.1850    -0.7110 c3         1 F88      -0.009100
     25 N2           6.6250    -1.6760     1.4050 ns         1 F88      -0.044100
     26 O1           8.1440    -6.8780     2.5040 os         1 F88      -0.333400
     27 N4           9.8400    -6.6670     0.9230 nb         1 F88      -0.722000
     28 N3          11.2230    -8.4210     0.3140 nb         1 F88      -0.657000
     29 C18         10.9860   -10.5980     1.2860 ca         1 F88      -0.265300
     30 C17         10.3140   -11.4160     2.1670 ca         1 F88       0.170100
     31 O2          10.6850   -12.7160     2.2940 os         1 F88      -0.290900
     32 O3           8.6010   -11.7480     3.7970 os         1 F88      -0.292900
     33 H1          -0.4340    -0.9240    -0.3630 h1         1 F88       0.027700
     34 H2          -0.1670     0.0820     1.0670 h1         1 F88       0.027700
     35 H3           2.2870     0.0760     1.7270 h4         1 F88       0.142000
     36 H4           6.0500    -3.8050    -0.0560 ha         1 F88       0.127000
     37 H5           6.7290    -6.1220     0.4330 ha         1 F88       0.113500
     38 H6           8.7270    -4.7910     3.9760 ha         1 F88       0.113500
     39 H7           8.0470    -2.4730     3.4880 ha         1 F88       0.127000
     40 H8           8.0340    -9.2440     3.4210 ha         1 F88       0.140000
     41 H9          11.3630    -6.5210    -0.4760 h5         1 F88      -0.004900
     42 H10         12.6600   -12.5810     1.7230 h1         1 F88       0.001033
     43 H11         11.5280   -13.0310     0.4400 h1         1 F88       0.001033
     44 H12         11.9690   -14.2080     1.6840 h1         1 F88       0.001033
     45 H13          6.7640   -10.8150     3.8750 h1         1 F88       0.000033
     46 H14          7.0990   -11.9440     5.1950 h1         1 F88       0.000033
     47 H15          7.8990   -10.3660     5.1560 h1         1 F88       0.000033
     48 H16          4.9250     0.5040     1.5930 hc         1 F88       0.025200
     49 H17          5.6730     0.5080    -0.0100 hc         1 F88       0.025200
     50 H18          4.0780     0.0050    -2.1640 h4         1 F88       0.001100
     51 H19         -0.6310     1.0220    -1.7820 hc         1 F88       0.015033
     52 H20         -1.6840     1.2790    -0.3840 hc         1 F88       0.015033
     53 H21         -0.1160     2.0940    -0.4720 hc         1 F88       0.015033
     54 H22          7.2560    -0.9220     1.5940 hn         1 F88       0.167500
     55 H23         11.8070   -10.9890     0.6980 ha         1 F88       0.143000
@<TRIPOS>BOND
     1     1    23 1   
     2     1    24 1   
     3     1    33 1   
     4     1    34 1   
     5     2     3 2   
     6     2    23 1   
     7     2    35 1   
     8     3    20 1   
     9     3    21 1   
    10     4     5 ar  
    11     4     9 ar  
    12     4    25 1   
    13     5     6 ar  
    14     5    36 1   
    15     6     7 ar  
    16     6    37 1   
    17     7     8 ar  
    18     7    26 1   
    19     8     9 ar  
    20     8    38 1   
    21     9    39 1   
    22    10    11 ar  
    23    10    26 1   
    24    10    27 ar  
    25    11    12 ar  
    26    11    14 ar  
    27    12    13 ar  
    28    12    40 1   
    29    13    30 ar  
    30    13    32 1   
    31    14    28 ar  
    32    14    29 ar  
    33    15    27 ar  
    34    15    28 ar  
    35    15    41 1   
    36    16    31 1   
    37    16    42 1   
    38    16    43 1   
    39    16    44 1   
    40    17    32 1   
    41    17    45 1   
    42    17    46 1   
    43    17    47 1   
    44    18    19 2   
    45    19    20 1   
    46    19    25 1   
    47    20    48 1   
    48    20    49 1   
    49    21    22 2   
    50    21    50 1   
    51    22    23 1   
    52    24    51 1   
    53    24    52 1   
    54    24    53 1   
    55    25    54 1   
    56    29    30 ar  
    57    29    55 1   
    58    30    31 1   
@<TRIPOS>SUBSTRUCTURE
     1 F88         1 TEMP              0 ****  ****    0 ROOT
