@<TRIPOS>MOLECULE
F89
   59    63     1     0     0
SMALL
bcc


@<TRIPOS>ATOM
      1 C1          0.2860   -0.4820    0.4200 c         1 F89      0.707100
      2 O1A        -0.1250   -0.5880   -0.7490 o         1 F89     -0.622500
      3 N2          1.6710   -0.6740    0.6060 n         1 F89     -0.496400
      4 C3          2.2480   -0.6180    1.8740 cc        1 F89      0.483900
      5 C3M         3.7400   -0.8390    1.9490 c3        1 F89     -0.140400
      6 N4          1.5570   -0.3860    2.9780 nd        1 F89     -0.632100
      7 C4A         0.1800   -0.1720    2.8660 ca        1 F89      0.190400
      8 C5         -0.5500    0.0780    4.0750 ca        1 F89     -0.135000
      9 C6         -1.8960    0.3010    4.0280 ca        1 F89     -0.080000
     10 C6A        -2.6040    0.3010    2.7940 ca        1 F89     -0.061000
     11 C7         -4.0010    0.5460    2.7740 ca        1 F89     -0.130000
     12 C8         -4.6960    0.5600    1.5900 ca        1 F89     -0.104000
     13 C9         -4.0140    0.3360    0.3690 ca        1 F89     -0.070300
     14 C10        -2.6550    0.0930    0.3680 ca        1 F89     -0.125000
     15 C1B        -1.9110    0.0600    1.5780 ca        1 F89      0.017000
     16 C1A        -0.5030   -0.1920    1.6330 ca        1 F89     -0.166600
     17 C11        -4.7840    0.3230   -0.9220 c3        1 F89      0.213100
     18 N12        -5.7020    1.4360   -1.0530 nh        1 F89     -0.714600
     19 C13        -6.2720    1.6400   -2.3360 ca        1 F89      0.109600
     20 C14        -6.6980    2.9510   -2.6900 ca        1 F89     -0.178000
     21 C15        -7.3380    3.1340   -3.8960 ca        1 F89     -0.035300
     22 C16        -7.5590    2.0500   -4.7830 ca        1 F89     -0.169600
     23 C17        -7.1470    0.7770   -4.4500 ca        1 F89     -0.051000
     24 C18        -6.4970    0.5720   -3.2260 ca        1 F89     -0.206000
     25 C19        -7.9010    4.3790   -4.5320 c3        1 F89      0.079300
     26 C          -8.2730    2.5780   -6.0060 c         1 F89      0.704100
     27 O          -8.6140    1.8630   -6.9600 o         1 F89     -0.617500
     28 N          -8.3510    3.9740   -5.8750 n         1 F89     -0.396800
     29 CA         -9.3810    4.8230   -6.4670 c3        1 F89     -0.019300
     30 CT        -10.7410    4.7230   -5.6970 c         1 F89      0.893600
     31 O1        -11.7520    4.2170   -6.2450 o         1 F89     -0.845300
     32 O2        -10.7480    5.1910   -4.5130 o         1 F89     -0.845300
     33 CB         -9.5370    4.6620   -7.9800 c3        1 F89     -0.054400
     34 CG         -8.2940    5.0780   -8.7340 c3        1 F89     -0.178400
     35 CD         -8.5450    5.4730  -10.1940 c         1 F89      0.904600
     36 OE1        -7.7750    4.9930  -11.0840 o         1 F89     -0.874800
     37 OE2        -9.4590    6.3050  -10.4740 o         1 F89     -0.874800
     38 HN2         2.2370   -0.8570   -0.1920 hn        1 F89      0.333500
     39 H3M1        3.9940   -1.8460    1.5380 hc        1 F89      0.064367
     40 H3M2        4.0990   -0.7820    3.0060 hc        1 F89      0.064367
     41 H3M3        4.2660   -0.0540    1.3510 hc        1 F89      0.064367
     42 H5         -0.0070    0.0870    5.0330 ha        1 F89      0.146000
     43 H6         -2.4620    0.4910    4.9540 ha        1 F89      0.133000
     44 H7         -4.5180    0.7260    3.7280 ha        1 F89      0.130000
     45 H8         -5.7820    0.7460    1.5730 ha        1 F89      0.160000
     46 H10        -2.1400   -0.0740   -0.5940 ha        1 F89      0.177000
     47 H111       -4.0590    0.2660   -1.7890 h1        1 F89      0.051700
     48 H112       -5.4010   -0.6250   -0.9420 h1        1 F89      0.051700
     49 HN12       -5.3090    2.2840   -0.6900 hn        1 F89      0.376800
     50 H14        -6.5350    3.7990   -2.0100 ha        1 F89      0.126000
     51 H17        -7.3240   -0.0650   -5.1360 ha        1 F89      0.142000
     52 H18        -6.1730   -0.4460   -2.9700 ha        1 F89      0.113000
     53 H191       -7.1120    5.1700   -4.6420 h1        1 F89      0.094200
     54 H192       -8.7700    4.7930   -3.9330 h1        1 F89      0.094200
     55 HA         -9.0110    5.8800   -6.2790 h1        1 F89      0.037700
     56 HB1        -9.8080    3.6030   -8.2250 hc        1 F89      0.067700
     57 HB2       -10.4010    5.3100   -8.2890 hc        1 F89      0.067700
     58 HG1        -7.8300    5.9700   -8.2370 hc        1 F89      0.013700
     59 HG2        -7.5420    4.2490   -8.7100 hc        1 F89      0.013700
@<TRIPOS>BOND
     1    1    2 2
     2    1    3 1
     3    1   16 1
     4    3    4 1
     5    3   38 1
     6    4    5 1
     7    4    6 2
     8    5   39 1
     9    5   40 1
    10    5   41 1
    11    6    7 1
    12    7    8 ar
    13    7   16 ar
    14    8    9 ar
    15    8   42 1
    16    9   10 ar
    17    9   43 1
    18   10   11 ar
    19   10   15 ar
    20   11   12 ar
    21   11   44 1
    22   12   13 ar
    23   12   45 1
    24   13   14 ar
    25   13   17 1
    26   14   15 ar
    27   14   46 1
    28   15   16 ar
    29   17   18 1
    30   17   47 1
    31   17   48 1
    32   18   19 1
    33   18   49 1
    34   19   20 ar
    35   19   24 ar
    36   20   21 ar
    37   20   50 1
    38   21   22 ar
    39   21   25 1
    40   22   23 ar
    41   22   26 1
    42   23   24 ar
    43   23   51 1
    44   24   52 1
    45   25   28 1
    46   25   53 1
    47   25   54 1
    48   26   27 2
    49   26   28 1
    50   28   29 1
    51   29   30 1
    52   29   33 1
    53   29   55 1
    54   30   31 1
    55   30   32 1
    56   33   34 1
    57   33   56 1
    58   33   57 1
    59   34   35 1
    60   34   58 1
    61   34   59 1
    62   35   36 1
    63   35   37 1
@<TRIPOS>SUBSTRUCTURE
     1 F89         1 TEMP              0 ****  ****    0 ROOT
