@<TRIPOS>MOLECULE
molecule
   44    47     1     0     0
SMALL
bcc


@<TRIPOS>ATOM
      1 F27          0.0000     0.0000     0.0000 f          1 F8A      -0.216300
      2 C24          1.3990     0.0000     0.0000 c3         1 F8A       0.669200
      3 F25          1.8660     0.0000     1.3180 f          1 F8A      -0.216300
      4 F26          1.8660    -1.1410    -0.6610 f          1 F8A      -0.216300
      5 C19          1.9020     1.2320    -0.7100 ca         1 F8A      -0.169300
      6 C20          1.0050     2.1810    -1.1640 ca         1 F8A      -0.098000
      7 C21          1.4650     3.3110    -1.8150 ca         1 F8A      -0.148000
      8 C22          2.8210     3.4900    -2.0130 ca         1 F8A      -0.120000
      9 C23          3.7170     2.5410    -1.5590 ca         1 F8A      -0.124000
     10 C18          3.2580     1.4140    -0.9030 ca         1 F8A      -0.043300
     11 C17          4.2350     0.3820    -0.4040 c3         1 F8A       0.083600
     12 N9           4.2490    -0.7620    -1.3200 na         1 F8A      -0.033400
     13 C8           3.6660    -0.7850    -2.5600 cc         1 F8A      -0.065300
     14 C16          2.9070     0.3440    -3.2180 c3         1 F8A      -0.029200
     15 C15          2.8000     0.0530    -4.7190 c3         1 F8A      -0.073400
     16 C14          2.2820    -1.3720    -4.9260 c3         1 F8A      -0.080400
     17 C13          3.3650    -2.3720    -4.5050 c3         1 F8A       0.008800
     18 C7           3.8670    -1.9880    -3.1370 cd         1 F8A      -0.175400
     19 C1           4.8470    -1.9560    -1.0690 ca         1 F8A      -0.001200
     20 C6           4.6280    -2.7860    -2.1980 ca         1 F8A      -0.113800
     21 C5           5.1200    -4.0930    -2.2460 ca         1 F8A      -0.112000
     22 C4           5.8250    -4.5450    -1.1400 ca         1 F8A      -0.180000
     23 C3           6.0410    -3.7510    -0.0330 ca         1 F8A      -0.093000
     24 C2           5.5720    -2.4330     0.0400 ca         1 F8A      -0.114600
     25 C10          5.8100    -1.5930     1.2270 c          1 F8A       0.895200
     26 O12          6.3490    -2.1330     2.3380 o          1 F8A      -0.844800
     27 O11          5.5200    -0.4130     1.2040 o          1 F8A      -0.844800
     28 H20         -0.0550     2.0590    -0.9740 ha         1 F8A       0.140000
     29 H21          0.7650     4.0710    -2.1410 ha         1 F8A       0.124000
     30 H22          3.1830     4.3920    -2.4910 ha         1 F8A       0.124000
     31 H23          4.7820     2.7070    -1.6680 ha         1 F8A       0.146000
     32 H17          3.9370     0.0500     0.5840 h1         1 F8A       0.123200
     33 H17A         5.2260     0.8170    -0.3540 h1         1 F8A       0.123200
     34 H16          1.9140     0.4110    -2.7900 hc         1 F8A       0.055700
     35 H16A         3.4380     1.2760    -3.0660 hc         1 F8A       0.055700
     36 H15          3.7780     0.1500    -5.1740 hc         1 F8A       0.033700
     37 H15A         2.1120     0.7550    -5.1740 hc         1 F8A       0.033700
     38 H14          2.0430    -1.5200    -5.9720 hc         1 F8A       0.033200
     39 H14A         1.3960    -1.5250    -4.3210 hc         1 F8A       0.033200
     40 H13          4.1840    -2.3410    -5.2130 hc         1 F8A       0.035200
     41 H13A         2.9440    -3.3700    -4.4700 hc         1 F8A       0.035200
     42 H5           4.9580    -4.7270    -3.1090 ha         1 F8A       0.110000
     43 H4           6.2110    -5.5570    -1.1420 ha         1 F8A       0.100000
     44 H3           6.5990    -4.1560     0.8030 ha         1 F8A       0.148000
@<TRIPOS>BOND
     1     1     2 1
     2     2     3 1
     3     2     4 1
     4     2     5 1
     5     6     5 ar
     6     5    10 ar
     7     6     7 ar
     8     6    28 1
     9     7     8 ar
    10     7    29 1
    11     8     9 ar
    12     8    30 1
    13    10     9 ar
    14     9    31 1
    15    10    11 1
    16    11    12 1
    17    11    32 1
    18    11    33 1
    19    12    13 1
    20    12    19 1
    21    14    13 1
    22    13    18 2
    23    14    15 1
    24    14    34 1
    25    14    35 1
    26    15    16 1
    27    15    36 1
    28    15    37 1
    29    16    17 1
    30    16    38 1
    31    16    39 1
    32    18    17 1
    33    17    40 1
    34    17    41 1
    35    18    20 1
    36    19    24 ar
    37    19    20 ar
    38    20    21 ar
    39    21    22 ar
    40    21    42 1
    41    23    22 ar
    42    22    43 1
    43    24    23 ar
    44    23    44 1
    45    25    24 1
    46    27    25 1
    47    25    26 1
@<TRIPOS>SUBSTRUCTURE
     1 F8A         1 TEMP              0 ****  ****    0 ROOT
