@<TRIPOS>MOLECULE
F8A
   44    47     1     0     0
SMALL
bcc


@<TRIPOS>ATOM
      1 F27        -0.5290    2.3850   -0.2130 f         1 F8A     -0.247633
      2 C24         0.4400    1.4130   -0.3370 c3        1 F8A      0.687200
      3 F25         0.2140    0.6110    0.7560 f         1 F8A     -0.247633
      4 F26        -0.0180    0.6630   -1.3960 f         1 F8A     -0.247633
      5 C19         1.8640    1.9400   -0.4770 ca        1 F8A     -0.171300
      6 C20         2.0310    3.3300   -0.5360 ca        1 F8A     -0.111000
      7 C21         3.3040    3.8830   -0.6130 ca        1 F8A     -0.150000
      8 C22         4.4220    3.0470   -0.6060 ca        1 F8A     -0.102000
      9 C23         4.2620    1.6670   -0.5490 ca        1 F8A     -0.095000
     10 C18         2.9800    1.0930   -0.5120 ca        1 F8A     -0.033300
     11 C17         2.8740   -0.4100   -0.4460 c3        1 F8A      0.047600
     12 N9          3.5810   -1.1150   -1.4760 na        1 F8A     -0.052400
     13 C8          3.0430   -1.4230   -2.7360 cc        1 F8A     -0.063300
     14 C16         1.7470   -0.9450   -3.2690 c3        1 F8A     -0.017200
     15 C15         1.6600   -1.2060   -4.7640 c3        1 F8A     -0.066400
     16 C14         2.1630   -2.5840   -5.1440 c3        1 F8A     -0.074400
     17 C13         3.6310   -2.7680   -4.7900 c3        1 F8A      0.007800
     18 C7          3.9070   -2.2720   -3.4360 cd        1 F8A     -0.163400
     19 C1          4.8190   -1.7810   -1.3620 ca        1 F8A     -0.018200
     20 C6          5.0450   -2.5200   -2.5890 ca        1 F8A     -0.088800
     21 C5          6.2050   -3.2780   -2.7470 ca        1 F8A     -0.126000
     22 C4          7.1320   -3.3010   -1.7180 ca        1 F8A     -0.161000
     23 C3          6.9200   -2.5680   -0.5390 ca        1 F8A     -0.118000
     24 C2          5.7800   -1.8010   -0.3330 ca        1 F8A     -0.109600
     25 C10         5.6490   -1.0140    0.9590 c         1 F8A      0.903200
     26 O12         4.8170   -1.4090    1.8250 o         1 F8A     -0.824800
     27 O11         6.3770    0.0090    1.0950 o         1 F8A     -0.824800
     28 H20         1.1480    3.9880   -0.5130 ha        1 F8A      0.134000
     29 H21         3.4260    4.9740   -0.6620 ha        1 F8A      0.123000
     30 H22         5.4350    3.4760   -0.6290 ha        1 F8A      0.139000
     31 H23         5.1540    1.0080   -0.4750 ha        1 F8A      0.210000
     32 H17         1.7880   -0.7140   -0.5050 h1        1 F8A      0.106200
     33 H17A        3.2840   -0.7390    0.5680 h1        1 F8A      0.106200
     34 H16         0.9080   -1.4710   -2.7360 hc        1 F8A      0.053200
     35 H16A        1.6190    0.1540   -3.0720 hc        1 F8A      0.053200
     36 H15         0.5940   -1.0920   -5.0900 hc        1 F8A      0.033700
     37 H15A        2.2650   -0.4330   -5.3070 hc        1 F8A      0.033700
     38 H14         2.0220   -2.7430   -6.2450 hc        1 F8A      0.031200
     39 H14A        1.5530   -3.3600   -4.6100 hc        1 F8A      0.031200
     40 H13         4.2680   -2.2120   -5.5320 hc        1 F8A      0.034700
     41 H13A        3.9050   -3.8540   -4.8690 hc        1 F8A      0.034700
     42 H5          6.3680   -3.8410   -3.6760 ha        1 F8A      0.109000
     43 H4          8.0520   -3.8940   -1.8220 ha        1 F8A      0.105000
     44 H3          7.6850   -2.5880    0.2530 ha        1 F8A      0.132000
@<TRIPOS>BOND
     1    1    2 1   
     2    2    3 1   
     3    2    4 1   
     4    2    5 1   
     5    5    6 ar  
     6    5   10 ar  
     7    6    7 ar  
     8    6   28 1   
     9    7    8 ar  
    10    7   29 1   
    11    8    9 ar  
    12    8   30 1   
    13    9   10 ar  
    14    9   31 1   
    15   10   11 1   
    16   11   12 1   
    17   11   32 1   
    18   11   33 1   
    19   12   13 1   
    20   12   19 1   
    21   13   14 1   
    22   13   18 2   
    23   14   15 1   
    24   14   34 1   
    25   14   35 1   
    26   15   16 1   
    27   15   36 1   
    28   15   37 1   
    29   16   17 1   
    30   16   38 1   
    31   16   39 1   
    32   17   18 1   
    33   17   40 1   
    34   17   41 1   
    35   18   20 1   
    36   19   20 ar  
    37   19   24 ar  
    38   20   21 ar  
    39   21   22 ar  
    40   21   42 1   
    41   22   23 ar  
    42   22   43 1   
    43   23   24 ar  
    44   23   44 1   
    45   24   25 1   
    46   25   26 1   
    47   25   27 1   
@<TRIPOS>SUBSTRUCTURE
     1 F8A         1 TEMP              0 ****  ****    0 ROOT
