@<TRIPOS>MOLECULE
F8B
   57    60     1     0     0
SMALL
bcc


@<TRIPOS>ATOM
      1 C1           0.0000     0.0000     0.0000 c3         1 F8B      -0.053000
      2 C2           1.5290     0.0000     0.0000 c3         1 F8B       0.004400
      3 C3          -0.5030     0.0000     1.4200 cc         1 F8B       0.282600
      4 C7          -4.7880     1.5270     6.3880 ca         1 F8B      -0.105400
      5 C8          -5.3580     0.2730     6.2140 ca         1 F8B      -0.097000
      6 C9          -6.6810     0.0640     6.5500 ca         1 F8B      -0.088000
      7 C10         -7.4410     1.1070     7.0610 ca         1 F8B       0.105100
      8 C11         -6.8710     2.3600     7.2360 ca         1 F8B      -0.088000
      9 C12         -5.5480     2.5700     6.9010 ca         1 F8B      -0.097000
     10 C13         -9.0110     0.2400     8.5400 ca         1 F8B       0.671600
     11 C14        -10.3360    -0.0970     8.8910 ca         1 F8B      -0.280600
     12 C15        -11.4270     0.2320     8.0760 ca         1 F8B      -0.153000
     13 C16        -12.6890    -0.1180     8.4650 ca         1 F8B       0.123100
     14 C19        -10.5520    -0.7900    10.1100 ca         1 F8B       0.440600
     15 C20         -8.2840    -0.7460    10.5000 ca         1 F8B       0.666900
     16 C21        -14.3240    -1.8360    11.2710 c3         1 F8B       0.239700
     17 C22        -13.4670     0.8990     6.4600 c3         1 F8B       0.240700
     18 O           -3.5640     0.2990     4.3700 o          1 F8B      -0.592100
     19 C6          -2.9080     1.1090     4.9900 c          1 F8B       0.540100
     20 N           -1.1490     0.6060     3.3960 na         1 F8B       0.606400
     21 C4          -0.6890     1.0810     2.2150 cd         1 F8B      -0.462600
     22 N1          -1.2350    -0.6750     3.3090 nd         1 F8B      -0.344800
     23 N2          -0.8590    -1.0680     2.1430 nc         1 F8B      -0.312000
     24 C           -0.5100     1.2500    -0.7210 c3         1 F8B       0.004400
     25 N3          -3.4430     1.7380     6.0540 ns         1 F8B      -0.024100
     26 O1          -8.7430     0.9010     7.3900 os         1 F8B      -0.334400
     27 N5          -8.0360    -0.1030     9.3700 nb         1 F8B      -0.723000
     28 N4          -9.4920    -1.0940    10.8730 nb         1 F8B      -0.654000
     29 C18        -11.8560    -1.1360    10.4820 ca         1 F8B      -0.267300
     30 C17        -12.9030    -0.8030     9.6700 ca         1 F8B       0.172100
     31 O2         -14.1680    -1.1390    10.0320 os         1 F8B      -0.290900
     32 O3         -13.7490     0.2020     7.6750 os         1 F8B      -0.291900
     33 H1          -0.3610    -0.8840    -0.5110 hc         1 F8B       0.041700
     34 H2           1.8900     0.0310    -1.0210 hc         1 F8B       0.004367
     35 H3           1.8900     0.8690     0.5370 hc         1 F8B       0.004367
     36 H4           1.8900    -0.8990     0.4840 hc         1 F8B       0.004367
     37 H5          -4.7650    -0.5410     5.8150 ha         1 F8B       0.128000
     38 H6          -7.1260    -0.9140     6.4140 ha         1 F8B       0.116000
     39 H7          -7.4650     3.1740     7.6350 ha         1 F8B       0.116000
     40 H8          -5.1030     3.5480     7.0370 ha         1 F8B       0.128000
     41 H9         -11.2710     0.7610     7.1440 ha         1 F8B       0.140000
     42 H10         -7.4500    -1.0030    11.1420 h5         1 F8B      -0.003900
     43 H11        -13.7750    -2.7690    11.2320 h1         1 F8B       0.001700
     44 H12        -15.3740    -2.0420    11.4390 h1         1 F8B       0.001700
     45 H13        -13.9420    -1.2250    12.0790 h1         1 F8B       0.001700
     46 H14        -14.3920     1.0910     5.9300 h1         1 F8B       0.000033
     47 H15        -12.8140     0.2960     5.8410 h1         1 F8B       0.000033
     48 H16        -12.9800     1.8400     6.6890 h1         1 F8B       0.000033
     49 H17         -1.4080     2.4640     4.3210 h1         1 F8B       0.049200
     50 H18         -0.8160     1.1770     5.3800 h1         1 F8B       0.049200
     51 H19         -0.3030     2.0770     2.0360 h4         1 F8B       0.160000
     52 H20         -0.3410     1.1460    -1.7860 hc         1 F8B       0.004367
     53 H21          0.0200     2.1200    -0.3550 hc         1 F8B       0.004367
     54 H22         -1.5710     1.3670    -0.5340 hc         1 F8B       0.004367
     55 H23         -2.8680     2.3130     6.6360 hn         1 F8B       0.165500
     56 H24        -12.0350    -1.6650    11.4110 ha         1 F8B       0.144000
     57 C5          -1.4930     1.4130     4.5680 c3         1 F8B      -0.100700
@<TRIPOS>BOND
     1     1     2 1   
     2     1     3 1   
     3     1    24 1   
     4     1    33 1   
     5     2    34 1   
     6     2    35 1   
     7     2    36 1   
     8     3    21 2   
     9     3    23 1   
    10     4     5 ar  
    11     4     9 ar  
    12     4    25 1   
    13     5     6 ar  
    14     5    37 1   
    15     6     7 ar  
    16     6    38 1   
    17     7     8 ar  
    18     7    26 1   
    19     8     9 ar  
    20     8    39 1   
    21     9    40 1   
    22    10    11 ar  
    23    10    26 1   
    24    10    27 ar  
    25    11    12 ar  
    26    11    14 ar  
    27    12    13 ar  
    28    12    41 1   
    29    13    30 ar  
    30    13    32 1   
    31    14    28 ar  
    32    14    29 ar  
    33    15    27 ar  
    34    15    28 ar  
    35    15    42 1   
    36    16    31 1   
    37    16    43 1   
    38    16    44 1   
    39    16    45 1   
    40    17    32 1   
    41    17    46 1   
    42    17    47 1   
    43    17    48 1   
    44    18    19 2   
    45    19    25 1   
    46    19    57 1   
    47    20    21 1   
    48    20    22 1   
    49    20    57 1   
    50    21    51 1   
    51    22    23 2   
    52    24    52 1   
    53    24    53 1   
    54    24    54 1   
    55    25    55 1   
    56    29    30 ar  
    57    29    56 1   
    58    30    31 1   
    59    49    57 1   
    60    50    57 1   
@<TRIPOS>SUBSTRUCTURE
     1 F8B         1 TEMP              0 ****  ****    0 ROOT
