@<TRIPOS>MOLECULE
molecule
   57    60     1     0     0
SMALL
bcc


@<TRIPOS>ATOM
      1 C1           0.0000     0.0000     0.0000 c3         1 F8B      -0.088000
      2 C2           1.5290     0.0000     0.0000 c3         1 F8B      -0.087600
      3 C3          -0.5030     0.0000     1.4200 cc         1 F8B       0.292600
      4 C7          -4.7880     1.5270     6.3880 ca         1 F8B       0.051600
      5 C8          -5.3580     0.2730     6.2140 ca         1 F8B      -0.131500
      6 C9          -6.6810     0.0640     6.5500 ca         1 F8B      -0.106000
      7 C10         -7.4410     1.1070     7.0610 ca         1 F8B       0.094100
      8 C11         -6.8710     2.3600     7.2360 ca         1 F8B      -0.106000
      9 C12         -5.5480     2.5700     6.9010 ca         1 F8B      -0.131500
     10 C13         -9.0110     0.2400     8.5400 ca         1 F8B       0.705600
     11 C14        -10.3360    -0.0970     8.8910 ca         1 F8B      -0.281600
     12 C15        -11.4270     0.2320     8.0760 ca         1 F8B      -0.163000
     13 C16        -12.6890    -0.1180     8.4650 ca         1 F8B       0.116100
     14 C19        -10.5520    -0.7900    10.1100 ca         1 F8B       0.478600
     15 C20         -8.2840    -0.7460    10.5000 ca         1 F8B       0.714900
     16 C21        -14.3240    -1.8360    11.2710 c3         1 F8B       0.122700
     17 C22        -13.4670     0.8990     6.4600 c3         1 F8B       0.125700
     18 O           -3.5640     0.2990     4.3700 o          1 F8B      -0.545100
     19 C6          -2.9080     1.1090     4.9900 c          1 F8B       0.640100
     20 N           -1.1490     0.6060     3.3960 na         1 F8B       0.129400
     21 C4          -0.6890     1.0810     2.2150 cd         1 F8B      -0.292600
     22 N1          -1.2350    -0.6750     3.3090 nd         1 F8B      -0.173800
     23 N2          -0.8590    -1.0680     2.1430 nc         1 F8B      -0.359000
     24 C           -0.5100     1.2500    -0.7210 c3         1 F8B      -0.087600
     25 N3          -3.4430     1.7380     6.0540 ns         1 F8B      -0.479100
     26 O1          -8.7430     0.9010     7.3900 os         1 F8B      -0.351400
     27 N5          -8.0360    -0.1030     9.3700 nb         1 F8B      -0.823000
     28 N4          -9.4920    -1.0940    10.8730 nb         1 F8B      -0.755000
     29 C18        -11.8560    -1.1360    10.4820 ca         1 F8B      -0.273300
     30 C17        -12.9030    -0.8030     9.6700 ca         1 F8B       0.169100
     31 O2         -14.1680    -1.1390    10.0320 os         1 F8B      -0.307900
     32 O3         -13.7490     0.2020     7.6750 os         1 F8B      -0.312900
     33 H1          -0.3610    -0.8840    -0.5110 hc         1 F8B       0.074700
     34 H2           1.8900     0.0310    -1.0210 hc         1 F8B       0.037367
     35 H3           1.8900     0.8690     0.5370 hc         1 F8B       0.037367
     36 H4           1.8900    -0.8990     0.4840 hc         1 F8B       0.037367
     37 H5          -4.7650    -0.5410     5.8150 ha         1 F8B       0.154000
     38 H6          -7.1260    -0.9140     6.4140 ha         1 F8B       0.146500
     39 H7          -7.4650     3.1740     7.6350 ha         1 F8B       0.146500
     40 H8          -5.1030     3.5480     7.0370 ha         1 F8B       0.154000
     41 H9         -11.2710     0.7610     7.1440 ha         1 F8B       0.160000
     42 H10         -7.4500    -1.0030    11.1420 h5         1 F8B       0.058100
     43 H11        -13.7750    -2.7690    11.2320 h1         1 F8B       0.046367
     44 H12        -15.3740    -2.0420    11.4390 h1         1 F8B       0.046367
     45 H13        -13.9420    -1.2250    12.0790 h1         1 F8B       0.046367
     46 H14        -14.3920     1.0910     5.9300 h1         1 F8B       0.044367
     47 H15        -12.8140     0.2960     5.8410 h1         1 F8B       0.044367
     48 H16        -12.9800     1.8400     6.6890 h1         1 F8B       0.044367
     49 H17         -1.4080     2.4640     4.3210 h1         1 F8B       0.084700
     50 H18         -0.8160     1.1770     5.3800 h1         1 F8B       0.084700
     51 H19         -0.3030     2.0770     2.0360 h4         1 F8B       0.178000
     52 H20         -0.3410     1.1460    -1.7860 hc         1 F8B       0.037367
     53 H21          0.0200     2.1200    -0.3550 hc         1 F8B       0.037367
     54 H22         -1.5710     1.3670    -0.5340 hc         1 F8B       0.037367
     55 H23         -2.8680     2.3130     6.6360 hn         1 F8B       0.323500
     56 H24        -12.0350    -1.6650    11.4110 ha         1 F8B       0.165000
     57 C5          -1.4930     1.4130     4.5680 c3         1 F8B      -0.011700
@<TRIPOS>BOND
     1    24     1 1
     2     1     3 1
     3     1     2 1
     4     3    23 1
     5     3    21 2
     6    23    22 2
     7    21    20 1
     8    22    20 1
     9    20    57 1
    10    57    19 1
    11    19    25 1
    12    19    18 2
    13    25     4 1
    14     9     4 ar
    15     9     8 ar
    16     4     5 ar
    17     8     7 ar
    18     5     6 ar
    19     7     6 ar
    20     7    26 1
    21    27    15 ar
    22    27    10 ar
    23    15    28 ar
    24    26    10 1
    25    10    11 ar
    26    28    14 ar
    27    11    14 ar
    28    11    12 ar
    29    14    29 ar
    30    12    13 ar
    31    29    30 ar
    32    13    30 ar
    33    13    32 1
    34    30    31 1
    35    32    17 1
    36    31    16 1
    37     1    33 1
    38     2    34 1
    39     2    35 1
    40     2    36 1
    41     5    37 1
    42     6    38 1
    43     8    39 1
    44     9    40 1
    45    12    41 1
    46    15    42 1
    47    16    43 1
    48    16    44 1
    49    16    45 1
    50    17    46 1
    51    17    47 1
    52    17    48 1
    53    57    49 1
    54    57    50 1
    55    21    51 1
    56    24    52 1
    57    24    53 1
    58    24    54 1
    59    25    55 1
    60    29    56 1
@<TRIPOS>SUBSTRUCTURE
     1 F8B         1 TEMP              0 ****  ****    0 ROOT
