@<TRIPOS>MOLECULE
F8D
   32    34     1     0     0
SMALL
bcc


@<TRIPOS>ATOM
      1 C13          0.0000     0.0000     0.0000 ca         1 F8D      -0.059000
      2 C17          1.3710    -0.0080     2.3950 ca         1 F8D      -0.200300
      3 C01          2.0110     3.3860     5.2880 c3         1 F8D      -0.068100
      4 C02          1.6830     1.9980     4.8020 c          1 F8D       0.608100
      5 O03          0.6180     1.4920     5.0870 o          1 F8D      -0.650100
      6 N04          2.5740     1.3170     4.0550 n          1 F8D      -0.159800
      7 C05          3.8990     1.8110     3.6390 c3         1 F8D       0.049000
      8 C06          4.7390     0.5340     3.3960 c3         1 F8D      -0.080700
      9 C07          5.2740    -0.0280     4.7150 c3         1 F8D       0.232400
     10 O08          6.2180     0.8880     5.2740 oh         1 F8D      -0.591800
     11 C09          3.6910    -0.4230     2.7710 c3         1 F8D       0.172100
     12 O10          3.4230     0.0060     1.4280 os         1 F8D      -0.289900
     13 C11          2.0810     0.0000     1.2030 ca         1 F8D       0.137100
     14 C12          1.3790     0.0000     0.0000 ca         1 F8D      -0.121000
     15 C14         -0.6990     0.0060     1.1950 ca         1 F8D      -0.075600
     16 Cl15        -2.4340     0.0170     1.1890 cl         1 F8D      -0.021400
     17 C16         -0.0080     0.0020     2.3940 ca         1 F8D      -0.015000
     18 C18          2.3830    -0.0360     3.5220 c3         1 F8D       0.078000
     19 H131        -0.5390    -0.0040    -0.9400 ha         1 F8D       0.114000
     20 H012         2.2960     4.0050     4.4460 hc         1 F8D       0.025033
     21 H013         1.1410     3.8140     5.7730 hc         1 F8D       0.025033
     22 H011         2.8310     3.3370     5.9940 hc         1 F8D       0.025033
     23 H051         4.3420     2.4070     4.4280 h1         1 F8D       0.034700
     24 H052         3.8170     2.3860     2.7250 h1         1 F8D       0.034700
     25 H061         5.5430     0.7310     2.6970 hc         1 F8D       0.060700
     26 H072         4.4530    -0.1690     5.4070 h1         1 F8D      -0.006300
     27 H071         5.7600    -0.9790     4.5310 h1         1 F8D      -0.006300
     28 H081         6.7680     0.4350     5.8920 ho         1 F8D       0.396000
     29 H091         3.9460    -1.4720     2.8560 h1         1 F8D       0.047700
     30 H121         1.9180    -0.0050    -0.9390 ha         1 F8D       0.114000
     31 H161        -0.5500     0.0070     3.3320 ha         1 F8D       0.137000
     32 H181         2.1240    -0.7540     4.2910 h1         1 F8D       0.053700
@<TRIPOS>BOND
     1     1    14 ar  
     2     1    15 ar  
     3     1    19 1   
     4     2    13 ar  
     5     2    17 ar  
     6     2    18 1   
     7     3     4 1   
     8     3    20 1   
     9     3    21 1   
    10     3    22 1   
    11     4     5 2   
    12     4     6 1   
    13     6     7 1   
    14     6    18 1   
    15     7     8 1   
    16     7    23 1   
    17     7    24 1   
    18     8     9 1   
    19     8    11 1   
    20     8    25 1   
    21     9    10 1   
    22     9    26 1   
    23     9    27 1   
    24    10    28 1   
    25    11    12 1   
    26    11    18 1   
    27    11    29 1   
    28    12    13 1   
    29    13    14 ar  
    30    14    30 1   
    31    15    16 1   
    32    15    17 ar  
    33    17    31 1   
    34    18    32 1   
@<TRIPOS>SUBSTRUCTURE
     1 F8D         1 TEMP              0 ****  ****    0 ROOT
