@<TRIPOS>MOLECULE
molecule
   32    34     1     0     0
SMALL
bcc


@<TRIPOS>ATOM
      1 C13          0.0000     0.0000     0.0000 ca         1 F8D      -0.085000
      2 C17          1.3710    -0.0080     2.3950 ca         1 F8D      -0.180300
      3 C01          2.0110     3.3860     5.2880 c3         1 F8D      -0.165100
      4 C02          1.6830     1.9980     4.8020 c          1 F8D       0.682100
      5 O03          0.6180     1.4920     5.0870 o          1 F8D      -0.610100
      6 N04          2.5740     1.3170     4.0550 n          1 F8D      -0.492800
      7 C05          3.8990     1.8110     3.6390 c3         1 F8D       0.101000
      8 C06          4.7390     0.5340     3.3960 c3         1 F8D      -0.088700
      9 C07          5.2740    -0.0280     4.7150 c3         1 F8D       0.147400
     10 O08          6.2180     0.8880     5.2740 oh         1 F8D      -0.609800
     11 C09          3.6910    -0.4230     2.7710 c3         1 F8D       0.129100
     12 O10          3.4230     0.0060     1.4280 os         1 F8D      -0.307900
     13 C11          2.0810     0.0000     1.2030 ca         1 F8D       0.126100
     14 C12          1.3790     0.0000     0.0000 ca         1 F8D      -0.144000
     15 C14         -0.6990     0.0060     1.1950 ca         1 F8D      -0.008600
     16 Cl15        -2.4340     0.0170     1.1890 cl         1 F8D      -0.104400
     17 C16         -0.0080     0.0020     2.3940 ca         1 F8D      -0.047000
     18 C18          2.3830    -0.0360     3.5220 c3         1 F8D       0.141000
     19 H131        -0.5390    -0.0040    -0.9400 ha         1 F8D       0.148000
     20 H012         2.2960     4.0050     4.4460 hc         1 F8D       0.063033
     21 H013         1.1410     3.8140     5.7730 hc         1 F8D       0.063033
     22 H011         2.8310     3.3370     5.9940 hc         1 F8D       0.063033
     23 H051         4.3420     2.4070     4.4280 h1         1 F8D       0.064200
     24 H052         3.8170     2.3860     2.7250 h1         1 F8D       0.064200
     25 H061         5.5430     0.7310     2.6970 hc         1 F8D       0.092700
     26 H072         4.4530    -0.1690     5.4070 h1         1 F8D       0.031200
     27 H071         5.7600    -0.9790     4.5310 h1         1 F8D       0.031200
     28 H081         6.7680     0.4350     5.8920 ho         1 F8D       0.410000
     29 H091         3.9460    -1.4720     2.8560 h1         1 F8D       0.086700
     30 H121         1.9180    -0.0050    -0.9390 ha         1 F8D       0.145000
     31 H161        -0.5500     0.0070     3.3320 ha         1 F8D       0.168000
     32 H181         2.1240    -0.7540     4.2910 h1         1 F8D       0.085700
@<TRIPOS>BOND
     1    10     9 1
     2     9     8 1
     3     5     4 2
     4     8     7 1
     5     8    11 1
     6     7     6 1
     7     4     6 1
     8     4     3 1
     9     6    18 1
    10    11    18 1
    11    11    12 1
    12    18     2 1
    13    12    13 1
    14     2    13 ar
    15     2    17 ar
    16    13    14 ar
    17    17    15 ar
    18    14     1 ar
    19    15     1 ar
    20    15    16 1
    21     1    19 1
    22     3    20 1
    23     3    21 1
    24     3    22 1
    25     7    23 1
    26     7    24 1
    27     8    25 1
    28     9    26 1
    29     9    27 1
    30    10    28 1
    31    11    29 1
    32    14    30 1
    33    17    31 1
    34    18    32 1
@<TRIPOS>SUBSTRUCTURE
     1 F8D         1 TEMP              0 ****  ****    0 ROOT
