@<TRIPOS>MOLECULE
F8E
   32    34     1     0     0
SMALL
bcc


@<TRIPOS>ATOM
      1 Br           0.0000     0.0000     0.0000 br         1 F8E      -0.072100
      2 C1           3.6430     0.0180    -3.6790 c3         1 F8E       0.269700
      3 O2           3.8410     0.0120    -2.2410 os         1 F8E      -0.411900
      4 C3           2.7350     0.0060    -1.4720 c          1 F8E       0.712700
      5 O4           1.6360     0.0060    -1.9880 o          1 F8E      -0.574000
      6 C5           2.8580     0.0000     0.0000 ca         1 F8E      -0.108600
      7 C6           4.1200     0.0000     0.5960 ca         1 F8E      -0.057000
      8 C7           4.2290    -0.0060     1.9790 ca         1 F8E      -0.013400
      9 C8           3.0820    -0.0110     2.7660 ca         1 F8E      -0.107000
     10 C9           1.8330    -0.0110     2.1760 ca         1 F8E      -0.081000
     11 C10          1.7130     0.0000     0.8000 ca         1 F8E       0.055100
     12 N12          5.4910    -0.0060     2.5810 nu         1 F8E      -0.287300
     13 C13          6.5470     0.6490     1.9740 ca         1 F8E       0.578200
     14 C14          7.8460     0.5630     2.5000 ca         1 F8E      -0.407400
     15 C15          8.4550    -0.1060     3.6480 cc         1 F8E      -0.127200
     16 C16          9.7640     0.1960     3.6230 cd         1 F8E      -0.280100
     17 N17         10.0340     1.0050     2.5500 na         1 F8E       0.279900
     18 C19          8.8860     1.2470     1.8460 ca         1 F8E       0.290800
     19 N20          8.5970     1.9500     0.7510 nb         1 F8E      -0.677000
     20 C21          7.3660     2.0030     0.2930 ca         1 F8E       0.687900
     21 N22          6.3600     1.3710     0.8730 nb         1 F8E      -0.733000
     22 HN17        10.9380     1.3650     2.3160 hn         1 F8E       0.120700
     23 H1           4.6060     0.0220    -4.1750 h1         1 F8E       0.000700
     24 H1A          3.0870     0.9030    -3.9630 h1         1 F8E       0.000700
     25 H1B          3.0900    -0.8660    -3.9710 h1         1 F8E       0.000700
     26 H6           5.0120     0.0040    -0.0190 ha         1 F8E       0.156000
     27 H8           3.1690    -0.0170     3.8460 ha         1 F8E       0.108000
     28 H9           0.9440    -0.0140     2.7950 ha         1 F8E       0.119000
     29 HN12         5.6330    -0.4920     3.4440 hn         1 F8E       0.290800
     30 H15          7.9490    -0.7260     4.3790 ha         1 F8E       0.126000
     31 H16         10.4960    -0.1470     4.3440 h4         1 F8E       0.145000
     32 H21          7.1700     2.5800    -0.6030 h5         1 F8E      -0.002900
@<TRIPOS>BOND
     1     1    11 1   
     2     2     3 1   
     3     2    23 1   
     4     2    24 1   
     5     2    25 1   
     6     3     4 1   
     7     4     5 2   
     8     4     6 1   
     9     6     7 ar  
    10     6    11 ar  
    11     7     8 ar  
    12     7    26 1   
    13     8     9 ar  
    14     8    12 1   
    15     9    10 ar  
    16     9    27 1   
    17    10    11 ar  
    18    10    28 1   
    19    12    13 1   
    20    12    29 1   
    21    13    14 ar  
    22    13    21 ar  
    23    14    15 1   
    24    14    18 ar  
    25    15    16 2   
    26    15    30 1   
    27    16    17 1   
    28    16    31 1   
    29    17    18 1   
    30    17    22 1   
    31    18    19 ar  
    32    19    20 ar  
    33    20    21 ar  
    34    20    32 1   
@<TRIPOS>SUBSTRUCTURE
     1 F8E         1 TEMP              0 ****  ****    0 ROOT
