@<TRIPOS>MOLECULE
molecule
   61    64     1     0     0
SMALL
bcc


@<TRIPOS>ATOM
      1 C1           0.0000     0.0000     0.0000 c3         1 F8H      -0.087000
      2 C2           1.5300     0.0000     0.0000 c3         1 F8H      -0.088100
      3 C3          -0.5020     0.0000     1.4210 cc         1 F8H       0.291600
      4 N6          -4.9320     7.0200     8.2090 nb         1 F8H      -0.833000
      5 C7          -2.8700     2.8000     7.0720 ca         1 F8H       0.030600
      6 C8          -4.1470     2.4440     6.6610 ca         1 F8H      -0.122500
      7 C9          -5.2380     3.1780     7.0810 ca         1 F8H      -0.126000
      8 C10         -5.0580     4.2740     7.9150 ca         1 F8H       0.137600
      9 C11         -3.7800     4.6300     8.3260 ca         1 F8H      -0.126000
     10 C12         -2.6900     3.8960     7.9050 ca         1 F8H      -0.122500
     11 C13         -6.0440     6.3780     8.5410 ca         1 F8H       0.760200
     12 C14         -7.1040     7.1250     9.1040 ca         1 F8H      -0.390600
     13 C15         -6.9200     8.5190     9.2830 ca         1 F8H       0.529600
     14 C16         -7.9510     9.2820     9.8390 ca         1 F8H      -0.239300
     15 C19         -8.3140     6.5270     9.4850 ca         1 F8H       0.200900
     16 C20        -11.3310     8.7120    11.1020 c3         1 F8H       0.137400
     17 C21        -12.3390     9.7030    11.6890 c3         1 F8H       0.139400
     18 C22        -13.6740    11.6130    11.1290 c3         1 F8H       0.129700
     19 F           -8.4970     5.1990     9.3180 f          1 F8H      -0.139900
     20 C18         -9.3060     7.2930    10.0260 ca         1 F8H      -0.268000
     21 C17         -9.1310     8.6670    10.2040 ca         1 F8H       0.194100
     22 O1         -10.1340     9.4070    10.7440 os         1 F8H      -0.305900
     23 O2         -12.7300    10.6370    10.6820 os         1 F8H      -0.419600
     24 N5          -5.7530     9.0670     8.9120 nb         1 F8H      -0.779000
     25 C23         -4.8030     8.3240     8.3930 ca         1 F8H       0.741900
     26 N4          -6.1640     5.0180     8.3420 nu         1 F8H      -0.759300
     27 N3          -1.7640     2.0520     6.6490 ns         1 F8H      -0.477100
     28 C6          -1.7340     1.5350     5.4050 c          1 F8H       0.639100
     29 O           -2.6980     1.6510     4.6780 o          1 F8H      -0.547100
     30 N           -0.7240     0.3480     3.5450 na         1 F8H       0.129400
     31 C4           0.0660     0.6210     2.4810 cd         1 F8H      -0.291600
     32 N1          -1.7020    -0.3870     3.1440 nc         1 F8H      -0.172800
     33 N2          -1.6000    -0.6110     1.8820 nd         1 F8H      -0.360000
     34 C           -0.5100     1.2500    -0.7210 c3         1 F8H      -0.088100
     35 H1          -0.3610    -0.8840    -0.5110 hc         1 F8H       0.071700
     36 H2           1.8910     0.9820     0.2820 hc         1 F8H       0.037867
     37 H3           1.8910    -0.2460    -0.9910 hc         1 F8H       0.037867
     38 H4           1.8910    -0.7350     0.7090 hc         1 F8H       0.037867
     39 H5          -4.2880     1.5890     6.0100 ha         1 F8H       0.150500
     40 H6          -6.2350     2.8990     6.7610 ha         1 F8H       0.149500
     41 H7          -3.6390     5.4850     8.9760 ha         1 F8H       0.149500
     42 H8          -1.6930     4.1740     8.2260 ha         1 F8H       0.150500
     43 H9          -7.8250    10.3490     9.9820 ha         1 F8H       0.173000
     44 H10        -11.7550     8.2450    10.2220 h1         1 F8H       0.048200
     45 H11        -11.1010     7.9520    11.8390 h1         1 F8H       0.048200
     46 H12        -13.2110     9.1650    12.0410 h1         1 F8H       0.038200
     47 H13        -11.8840    10.2330    12.5170 h1         1 F8H       0.038200
     48 H14        -14.5740    11.1150    11.4700 h1         1 F8H       0.032033
     49 H15        -13.9180    12.2800    10.3120 h1         1 F8H       0.032033
     50 H16        -13.2460    12.1820    11.9450 h1         1 F8H       0.032033
     51 H17        -10.2410     6.8300    10.3190 ha         1 F8H       0.152000
     52 H18         -3.8740     8.7990     8.1040 h5         1 F8H       0.059100
     53 H19         -7.0470     4.5680     8.4780 hn         1 F8H       0.478800
     54 H20         -1.0020     1.8880     7.2770 hn         1 F8H       0.320500
     55 H21         -0.3090    -0.0380     5.5590 h1         1 F8H       0.083700
     56 H22          0.3420     1.4860     4.9400 h1         1 F8H       0.083700
     57 H23          1.0710     1.0220     2.5200 h4         1 F8H       0.178000
     58 H24         -0.1620     2.1340    -0.2000 hc         1 F8H       0.037867
     59 H25         -0.1350     1.2580    -1.7370 hc         1 F8H       0.037867
     60 H26         -1.5930     1.2410    -0.7350 hc         1 F8H       0.037867
     61 C5          -0.5060     0.8120     4.9170 c3         1 F8H      -0.012700
@<TRIPOS>BOND
     1     6     7 ar
     2     6     5 ar
     3    27     5 1
     4    27    28 1
     5     7     8 ar
     6     5    10 ar
     7    61    28 1
     8    61    30 1
     9     8    26 1
    10     8     9 ar
    11    32    30 1
    12    32    33 2
    13    28    29 2
    14    26    11 1
    15    10     9 ar
    16    19    15 1
    17    30    31 1
    18    11     4 ar
    19    11    12 ar
    20    15    12 ar
    21    15    20 ar
    22     4    25 ar
    23    33     3 1
    24    12    13 ar
    25    20    21 ar
    26    25    24 ar
    27    31     3 2
    28    13    24 ar
    29    13    14 ar
    30    21    14 ar
    31    21    22 1
    32     3     1 1
    33    22    16 1
    34    16    17 1
    35     1    34 1
    36     1     2 1
    37    17    23 1
    38    23    18 1
    39     1    35 1
    40     2    36 1
    41     2    37 1
    42     2    38 1
    43     6    39 1
    44     7    40 1
    45     9    41 1
    46    10    42 1
    47    14    43 1
    48    16    44 1
    49    16    45 1
    50    17    46 1
    51    17    47 1
    52    18    48 1
    53    18    49 1
    54    18    50 1
    55    20    51 1
    56    25    52 1
    57    26    53 1
    58    27    54 1
    59    61    55 1
    60    61    56 1
    61    31    57 1
    62    34    58 1
    63    34    59 1
    64    34    60 1
@<TRIPOS>SUBSTRUCTURE
     1 F8H         1 TEMP              0 ****  ****    0 ROOT
