@<TRIPOS>MOLECULE
F8H
   61    64     1     0     0
SMALL
bcc


@<TRIPOS>ATOM
      1 C1           0.0000     0.0000     0.0000 c3         1 F8H      -0.052000
      2 C2           1.5300     0.0000     0.0000 c3         1 F8H       0.003900
      3 C3          -0.5020     0.0000     1.4210 cc         1 F8H       0.281600
      4 N6          -4.9320     7.0200     8.2090 nb         1 F8H      -0.737000
      5 C7          -2.8700     2.8000     7.0720 ca         1 F8H      -0.117400
      6 C8          -4.1470     2.4440     6.6610 ca         1 F8H      -0.091500
      7 C9          -5.2380     3.1780     7.0810 ca         1 F8H      -0.098500
      8 C10         -5.0580     4.2740     7.9150 ca         1 F8H      -0.013400
      9 C11         -3.7800     4.6300     8.3260 ca         1 F8H      -0.098500
     10 C12         -2.6900     3.8960     7.9050 ca         1 F8H      -0.091500
     11 C13         -6.0440     6.3780     8.5410 ca         1 F8H       0.567200
     12 C14         -7.1040     7.1250     9.1040 ca         1 F8H      -0.383600
     13 C15         -6.9200     8.5190     9.2830 ca         1 F8H       0.499600
     14 C16         -7.9510     9.2820     9.8390 ca         1 F8H      -0.224300
     15 C19         -8.3140     6.5270     9.4850 ca         1 F8H       0.176900
     16 C20        -11.3310     8.7120    11.1020 c3         1 F8H       0.196400
     17 C21        -12.3390     9.7030    11.6890 c3         1 F8H       0.208400
     18 C22        -13.6740    11.6130    11.1290 c3         1 F8H       0.255700
     19 F           -8.4970     5.1990     9.3180 f          1 F8H      -0.123900
     20 C18         -9.3060     7.2930    10.0260 ca         1 F8H      -0.250000
     21 C17         -9.1310     8.6670    10.2040 ca         1 F8H       0.203100
     22 O1         -10.1340     9.4070    10.7440 os         1 F8H      -0.286900
     23 O2         -12.7300    10.6370    10.6820 os         1 F8H      -0.409600
     24 N5          -5.7530     9.0670     8.9120 nb         1 F8H      -0.691000
     25 C23         -4.8030     8.3240     8.3930 ca         1 F8H       0.701900
     26 N4          -6.1640     5.0180     8.3420 nu         1 F8H      -0.300300
     27 N3          -1.7640     2.0520     6.6490 ns         1 F8H      -0.021100
     28 C6          -1.7340     1.5350     5.4050 c          1 F8H       0.538100
     29 O           -2.6980     1.6510     4.6780 o          1 F8H      -0.593100
     30 N           -0.7240     0.3480     3.5450 na         1 F8H       0.605400
     31 C4           0.0660     0.6210     2.4810 cd         1 F8H      -0.460600
     32 N1          -1.7020    -0.3870     3.1440 nd         1 F8H      -0.344800
     33 N2          -1.6000    -0.6110     1.8820 nc         1 F8H      -0.313000
     34 C           -0.5100     1.2500    -0.7210 c3         1 F8H       0.003900
     35 H1          -0.3610    -0.8840    -0.5110 hc         1 F8H       0.039700
     36 H2           1.8910     0.9820     0.2820 hc         1 F8H       0.004867
     37 H3           1.8910    -0.2460    -0.9910 hc         1 F8H       0.004867
     38 H4           1.8910    -0.7350     0.7090 hc         1 F8H       0.004867
     39 H5          -4.2880     1.5890     6.0100 ha         1 F8H       0.125500
     40 H6          -6.2350     2.8990     6.7610 ha         1 F8H       0.124000
     41 H7          -3.6390     5.4850     8.9760 ha         1 F8H       0.124000
     42 H8          -1.6930     4.1740     8.2260 ha         1 F8H       0.125500
     43 H9          -7.8250    10.3490     9.9820 ha         1 F8H       0.142000
     44 H10        -11.7550     8.2450    10.2220 h1         1 F8H       0.009700
     45 H11        -11.1010     7.9520    11.8390 h1         1 F8H       0.009700
     46 H12        -13.2110     9.1650    12.0410 h1         1 F8H       0.000200
     47 H13        -11.8840    10.2330    12.5170 h1         1 F8H       0.000200
     48 H14        -14.5740    11.1150    11.4700 h1         1 F8H      -0.011967
     49 H15        -13.9180    12.2800    10.3120 h1         1 F8H      -0.011967
     50 H16        -13.2460    12.1820    11.9450 h1         1 F8H      -0.011967
     51 H17        -10.2410     6.8300    10.3190 ha         1 F8H       0.138000
     52 H18         -3.8740     8.7990     8.1040 h5         1 F8H      -0.005900
     53 H19         -7.0470     4.5680     8.4780 hn         1 F8H       0.317800
     54 H20         -1.0020     1.8880     7.2770 hn         1 F8H       0.163500
     55 H21         -0.3090    -0.0380     5.5590 h1         1 F8H       0.048700
     56 H22          0.3420     1.4860     4.9400 h1         1 F8H       0.048700
     57 H23          1.0710     1.0220     2.5200 h4         1 F8H       0.160000
     58 H24         -0.1620     2.1340    -0.2000 hc         1 F8H       0.004867
     59 H25         -0.1350     1.2580    -1.7370 hc         1 F8H       0.004867
     60 H26         -1.5930     1.2410    -0.7350 hc         1 F8H       0.004867
     61 C5          -0.5060     0.8120     4.9170 c3         1 F8H      -0.100700
@<TRIPOS>BOND
     1     1     2 1   
     2     1     3 1   
     3     1    34 1   
     4     1    35 1   
     5     2    36 1   
     6     2    37 1   
     7     2    38 1   
     8     3    31 2   
     9     3    33 1   
    10     4    11 ar  
    11     4    25 ar  
    12     5     6 ar  
    13     5    10 ar  
    14     5    27 1   
    15     6     7 ar  
    16     6    39 1   
    17     7     8 ar  
    18     7    40 1   
    19     8     9 ar  
    20     8    26 1   
    21     9    10 ar  
    22     9    41 1   
    23    10    42 1   
    24    11    12 ar  
    25    11    26 1   
    26    12    13 ar  
    27    12    15 ar  
    28    13    14 ar  
    29    13    24 ar  
    30    14    21 ar  
    31    14    43 1   
    32    15    19 1   
    33    15    20 ar  
    34    16    17 1   
    35    16    22 1   
    36    16    44 1   
    37    16    45 1   
    38    17    23 1   
    39    17    46 1   
    40    17    47 1   
    41    18    23 1   
    42    18    48 1   
    43    18    49 1   
    44    18    50 1   
    45    20    21 ar  
    46    20    51 1   
    47    21    22 1   
    48    24    25 ar  
    49    25    52 1   
    50    26    53 1   
    51    27    28 1   
    52    27    54 1   
    53    28    29 2   
    54    28    61 1   
    55    30    31 1   
    56    30    32 1   
    57    30    61 1   
    58    31    57 1   
    59    32    33 2   
    60    34    58 1   
    61    34    59 1   
    62    34    60 1   
    63    55    61 1   
    64    56    61 1   
@<TRIPOS>SUBSTRUCTURE
     1 F8H         1 TEMP              0 ****  ****    0 ROOT
