@<TRIPOS>MOLECULE
molecule
   54    56     1     0     0
SMALL
bcc


@<TRIPOS>ATOM
      1 C1           0.0000     0.0000     0.0000 ca         1 F8K      -0.157000
      2 C2           1.3810     0.0000     0.0000 ca         1 F8K      -0.083000
      3 C3           2.0760     0.0000     1.1940 ca         1 F8K      -0.211000
      4 C4           1.3910    -0.0010     2.4010 ca         1 F8K       0.147100
      5 C5           0.0050    -0.0010     2.4110 ca         1 F8K      -0.151000
      6 C6          -0.6960     0.0010     1.2080 cp         1 F8K      -0.009000
      7 C7          -2.1790     0.0060     1.2120 cp         1 F8K      -0.013000
      8 C8          -2.8730     0.0120     2.4200 ca         1 F8K      -0.117000
      9 C9          -4.2530     0.0190     2.4240 ca         1 F8K      -0.165000
     10 C10         -4.9530     0.0190     1.2250 ca         1 F8K       0.133600
     11 C11         -4.2620     0.0130     0.0130 ca         1 F8K       0.102100
     12 C12         -2.8800     0.0130     0.0060 ca         1 F8K      -0.172000
     13 O13          2.0790    -0.0020     3.5730 os         1 F8K      -0.329900
     14 C14          3.5060    -0.0030     3.4880 c3         1 F8K       0.127700
     15 O15         -4.9480     0.0140    -1.1610 os         1 F8K      -0.345900
     16 C16         -4.1770     0.0070    -2.3630 c3         1 F8K       0.130700
     17 N17         -6.3510     0.0260     1.2310 nu         1 F8K      -0.666000
     18 C18         -7.0430     0.1910     2.4330 ca         1 F8K       0.226600
     19 C19         -6.6150     1.1350     3.3590 ca         1 F8K      -0.168500
     20 C20         -7.3000     1.2970     4.5470 ca         1 F8K      -0.076000
     21 C21         -8.4140     0.5210     4.8140 ca         1 F8K      -0.234300
     22 C22         -8.8420    -0.4190     3.8960 ca         1 F8K      -0.076000
     23 C23         -8.1650    -0.5830     2.7040 ca         1 F8K      -0.168500
     24 C24         -9.1600     0.7000     6.1120 c3         1 F8K       0.168100
     25 N25        -10.2110     1.7110     5.9360 nx         1 F8K      -0.655400
     26 C26        -11.2100     1.2180     4.9780 c3         1 F8K       0.089600
     27 C27        -10.8600     1.9730     7.2280 c3         1 F8K       0.089600
     28 H1          -0.5420     0.0000    -0.9380 ha         1 F8K       0.129000
     29 H2           1.9210     0.0000    -0.9390 ha         1 F8K       0.137000
     30 H3           3.1590    -0.0000     1.1880 ha         1 F8K       0.141000
     31 H4          -0.5310    -0.0010     3.3520 ha         1 F8K       0.143000
     32 H5          -2.3290     0.0120     3.3570 ha         1 F8K       0.146000
     33 H6          -4.7910     0.0230     3.3640 ha         1 F8K       0.140000
     34 H7          -2.3430     0.0090    -0.9340 ha         1 F8K       0.153000
     35 H8           3.8350    -0.8870     2.9550 h1         1 F8K       0.045033
     36 H9           3.9270    -0.0040     4.4860 h1         1 F8K       0.045033
     37 H10          3.8360     0.8820     2.9570 h1         1 F8K       0.045033
     38 H11         -3.5540    -0.8790    -2.3880 h1         1 F8K       0.048033
     39 H12         -3.5490     0.8890    -2.3950 h1         1 F8K       0.048033
     40 H13         -4.8410     0.0050    -3.2190 h1         1 F8K       0.048033
     41 H14         -6.8560    -0.0660     0.3720 hn         1 F8K       0.472800
     42 H15         -5.7430     1.7420     3.1500 ha         1 F8K       0.165000
     43 H16         -6.9670     2.0320     5.2680 ha         1 F8K       0.132000
     44 H17         -9.7170    -1.0230     4.1080 ha         1 F8K       0.132000
     45 H18         -8.5020    -1.3200     1.9850 ha         1 F8K       0.165000
     46 H19         -9.6100    -0.2420     6.4030 hx         1 F8K       0.102200
     47 H20         -8.4710     1.0250     6.8830 hx         1 F8K       0.102200
     48 H21         -9.8040     2.5580     5.5880 hn         1 F8K       0.452800
     49 H22        -11.3110     0.1450     5.0820 hx         1 F8K       0.099033
     50 H23        -10.8920     1.4550     3.9700 hx         1 F8K       0.099033
     51 H24        -12.1640     1.6920     5.1760 hx         1 F8K       0.099033
     52 H25        -11.2890     1.0550     7.6090 hx         1 F8K       0.099033
     53 H26        -11.6430     2.7100     7.0960 hx         1 F8K       0.099033
     54 H27        -10.1260     2.3480     7.9310 hx         1 F8K       0.099033
@<TRIPOS>BOND
     1     3     2 ar
     2     3     4 ar
     3     2     1 ar
     4    13     4 1
     5    13    14 1
     6     4     5 ar
     7     1     6 ar
     8     5     6 ar
     9     6     7 1
    10     8     7 ar
    11     8     9 ar
    12     7    12 ar
    13     9    10 ar
    14    12    11 ar
    15    10    11 ar
    16    10    17 1
    17    20    19 ar
    18    20    21 ar
    19    11    15 1
    20    19    18 ar
    21    24    21 1
    22    24    25 1
    23    21    22 ar
    24    18    17 1
    25    18    23 ar
    26    22    23 ar
    27    27    25 1
    28    15    16 1
    29    25    26 1
    30     1    28 1
    31     2    29 1
    32     3    30 1
    33     5    31 1
    34     8    32 1
    35     9    33 1
    36    12    34 1
    37    14    35 1
    38    14    36 1
    39    14    37 1
    40    16    38 1
    41    16    39 1
    42    16    40 1
    43    17    41 1
    44    19    42 1
    45    20    43 1
    46    22    44 1
    47    23    45 1
    48    24    46 1
    49    24    47 1
    50    25    48 1
    51    26    49 1
    52    26    50 1
    53    26    51 1
    54    27    52 1
    55    27    53 1
    56    27    54 1
@<TRIPOS>SUBSTRUCTURE
     1 F8K         1 TEMP              0 ****  ****    0 ROOT
