@<TRIPOS>MOLECULE
F8K
   54    56     1     0     0
SMALL
bcc


@<TRIPOS>ATOM
      1 C1           0.0000     0.0000     0.0000 ca         1 F8K      -0.141000
      2 C2           1.3810     0.0000     0.0000 ca         1 F8K      -0.048000
      3 C3           2.0760     0.0000     1.1940 ca         1 F8K      -0.201000
      4 C4           1.3910    -0.0010     2.4010 ca         1 F8K       0.159100
      5 C5           0.0050    -0.0010     2.4110 ca         1 F8K      -0.141000
      6 C6          -0.6960     0.0010     1.2080 cp         1 F8K      -0.006000
      7 C7          -2.1790     0.0060     1.2120 cp         1 F8K       0.002000
      8 C8          -2.8730     0.0120     2.4200 ca         1 F8K      -0.099000
      9 C9          -4.2530     0.0190     2.4240 ca         1 F8K      -0.145000
     10 C10         -4.9530     0.0190     1.2250 ca         1 F8K      -0.035400
     11 C11         -4.2620     0.0130     0.0130 ca         1 F8K       0.119100
     12 C12         -2.8800     0.0130     0.0060 ca         1 F8K      -0.169000
     13 O13          2.0790    -0.0020     3.5730 os         1 F8K      -0.309900
     14 C14          3.5060    -0.0030     3.4880 c3         1 F8K       0.244700
     15 O15         -4.9480     0.0140    -1.1610 os         1 F8K      -0.324900
     16 C16         -4.1770     0.0070    -2.3630 c3         1 F8K       0.250700
     17 N17         -6.3510     0.0260     1.2310 nu         1 F8K      -0.195000
     18 C18         -7.0430     0.1910     2.4330 ca         1 F8K       0.074600
     19 C19         -6.6150     1.1350     3.3590 ca         1 F8K      -0.146000
     20 C20         -7.3000     1.2970     4.5470 ca         1 F8K      -0.038500
     21 C21         -8.4140     0.5210     4.8140 ca         1 F8K      -0.261300
     22 C22         -8.8420    -0.4190     3.8960 ca         1 F8K      -0.038500
     23 C23         -8.1650    -0.5830     2.7040 ca         1 F8K      -0.146000
     24 C24         -9.1600     0.7000     6.1120 c3         1 F8K       0.069100
     25 N25        -10.2110     1.7110     5.9360 nx         1 F8K       0.026600
     26 C26        -11.2100     1.2180     4.9780 c3         1 F8K       0.008600
     27 C27        -10.8600     1.9730     7.2280 c3         1 F8K       0.008600
     28 H1          -0.5420     0.0000    -0.9380 ha         1 F8K       0.109000
     29 H2           1.9210     0.0000    -0.9390 ha         1 F8K       0.105000
     30 H3           3.1590    -0.0000     1.1880 ha         1 F8K       0.125000
     31 H4          -0.5310    -0.0010     3.3520 ha         1 F8K       0.121000
     32 H5          -2.3290     0.0120     3.3570 ha         1 F8K       0.121000
     33 H6          -4.7910     0.0230     3.3640 ha         1 F8K       0.123000
     34 H7          -2.3430     0.0090    -0.9340 ha         1 F8K       0.138000
     35 H8           3.8350    -0.8870     2.9550 h1         1 F8K       0.000367
     36 H9           3.9270    -0.0040     4.4860 h1         1 F8K       0.000367
     37 H10          3.8360     0.8820     2.9570 h1         1 F8K       0.000367
     38 H11         -3.5540    -0.8790    -2.3880 h1         1 F8K       0.003033
     39 H12         -3.5490     0.8890    -2.3950 h1         1 F8K       0.003033
     40 H13         -4.8410     0.0050    -3.2190 h1         1 F8K       0.003033
     41 H14         -6.8560    -0.0660     0.3720 hn         1 F8K       0.304800
     42 H15         -5.7430     1.7420     3.1500 ha         1 F8K       0.138000
     43 H16         -6.9670     2.0320     5.2680 ha         1 F8K       0.103500
     44 H17         -9.7170    -1.0230     4.1080 ha         1 F8K       0.103500
     45 H18         -8.5020    -1.3200     1.9850 ha         1 F8K       0.138000
     46 H19         -9.6100    -0.2420     6.4030 hx         1 F8K       0.075200
     47 H20         -8.4710     1.0250     6.8830 hx         1 F8K       0.075200
     48 H21         -9.8040     2.5580     5.5880 hn         1 F8K       0.259800
     49 H22        -11.3110     0.1450     5.0820 hx         1 F8K       0.071367
     50 H23        -10.8920     1.4550     3.9700 hx         1 F8K       0.071367
     51 H24        -12.1640     1.6920     5.1760 hx         1 F8K       0.071367
     52 H25        -11.2890     1.0550     7.6090 hx         1 F8K       0.071367
     53 H26        -11.6430     2.7100     7.0960 hx         1 F8K       0.071367
     54 H27        -10.1260     2.3480     7.9310 hx         1 F8K       0.071367
@<TRIPOS>BOND
     1     1     2 ar  
     2     1     6 ar  
     3     1    28 1   
     4     2     3 ar  
     5     2    29 1   
     6     3     4 ar  
     7     3    30 1   
     8     4     5 ar  
     9     4    13 1   
    10     5     6 ar  
    11     5    31 1   
    12     6     7 1   
    13     7     8 ar  
    14     7    12 ar  
    15     8     9 ar  
    16     8    32 1   
    17     9    10 ar  
    18     9    33 1   
    19    10    11 ar  
    20    10    17 1   
    21    11    12 ar  
    22    11    15 1   
    23    12    34 1   
    24    13    14 1   
    25    14    35 1   
    26    14    36 1   
    27    14    37 1   
    28    15    16 1   
    29    16    38 1   
    30    16    39 1   
    31    16    40 1   
    32    17    18 1   
    33    17    41 1   
    34    18    19 ar  
    35    18    23 ar  
    36    19    20 ar  
    37    19    42 1   
    38    20    21 ar  
    39    20    43 1   
    40    21    22 ar  
    41    21    24 1   
    42    22    23 ar  
    43    22    44 1   
    44    23    45 1   
    45    24    25 1   
    46    24    46 1   
    47    24    47 1   
    48    25    26 1   
    49    25    27 1   
    50    25    48 1   
    51    26    49 1   
    52    26    50 1   
    53    26    51 1   
    54    27    52 1   
    55    27    53 1   
    56    27    54 1   
@<TRIPOS>SUBSTRUCTURE
     1 F8K         1 TEMP              0 ****  ****    0 ROOT
