@<TRIPOS>MOLECULE
F8M
   43    45     1     0     0
SMALL
bcc


@<TRIPOS>ATOM
      1 C01          0.0000     0.0000     0.0000 c3         1 F8M       0.182600
      2 C03          1.9960     0.0000     1.3710 c3         1 F8M       0.182600
      3 C04          1.9960    -1.1380    -0.7660 c3         1 F8M       0.151800
      4 C05          3.5040    -0.9710    -0.9550 c3         1 F8M      -0.036400
      5 C06          4.0530    -2.1560    -1.7530 c3         1 F8M       0.042900
      6 C07          5.5390    -1.9910    -1.9400 ca         1 F8M      -0.157300
      7 C08          6.4170    -2.5140    -1.0030 ca         1 F8M      -0.050000
      8 C09          7.7790    -2.3740    -1.1570 ca         1 F8M      -0.158000
      9 C10          8.2930    -1.7030    -2.2620 ca         1 F8M       0.192100
     10 C12         10.1670    -0.6950    -3.2750 ca         1 F8M       0.623600
     11 C14         12.0390     0.4700    -3.9910 ca         1 F8M       0.563200
     12 C16         11.3210     1.0880    -5.0360 ca         1 F8M      -0.275900
     13 C17         11.9900     2.0270    -5.9520 c          1 F8M       0.984200
     14 C20          9.9640     0.7920    -5.1860 ca         1 F8M       0.067000
     15 C21          9.3880    -0.1050    -4.2900 ca         1 F8M      -0.408900
     16 C22          7.9560    -0.4520    -4.3730 c          1 F8M       0.671300
     17 C24          7.4000    -1.1730    -3.2060 ca         1 F8M      -0.246600
     18 C25          6.0250    -1.3250    -3.0460 ca         1 F8M      -0.001000
     19 N02          1.4690     0.0000     0.0000 n3         1 F8M      -0.543600
     20 N13         11.4520    -0.3800    -3.1660 nb         1 F8M      -0.668000
     21 N15         13.3760     0.7580    -3.8280 nv         1 F8M      -0.585500
     22 O11          9.6260    -1.5790    -2.4150 os         1 F8M      -0.311400
     23 O18         13.1910     2.1950    -5.8800 o          1 F8M      -0.879300
     24 O19         11.2690     2.7000    -6.8700 o          1 F8M      -0.879300
     25 O23          7.2760    -0.1650    -5.3410 o          1 F8M      -0.580100
     26 H1          -0.3610    -0.9190     0.4450 h1         1 F8M      -0.000967
     27 H2          -0.3610     0.8450     0.5740 h1         1 F8M      -0.000967
     28 H3          -0.3610     0.0740    -1.0190 h1         1 F8M      -0.000967
     29 H4           2.9850     0.4400     1.3780 h1         1 F8M      -0.000967
     30 H5           2.0510    -1.0180     1.7370 h1         1 F8M      -0.000967
     31 H6           1.3390     0.5780     2.0100 h1         1 F8M      -0.000967
     32 H7           1.7990    -2.0580    -0.2280 h1         1 F8M       0.006200
     33 H8           1.5130    -1.1750    -1.7350 h1         1 F8M       0.006200
     34 H9           3.7010    -0.0520    -1.4940 hc         1 F8M       0.027700
     35 H10          3.9880    -0.9330     0.0130 hc         1 F8M       0.027700
     36 H11          3.5690    -2.1940    -2.7210 hc         1 F8M       0.012200
     37 H12          3.8560    -3.0750    -1.2150 hc         1 F8M       0.012200
     38 H13          6.0270    -3.0310    -0.1350 ha         1 F8M       0.096000
     39 H14          8.4520    -2.7890    -0.4160 ha         1 F8M       0.115000
     40 H15          9.3780     1.2460    -5.9760 ha         1 F8M       0.150000
     41 H16          5.3510    -1.0400    -3.8450 ha         1 F8M       0.123000
     42 H18         14.0660     0.0580    -4.0160 hn         1 F8M       0.273800
     43 H19         13.6570     1.6620    -3.5010 hn         1 F8M       0.273800
@<TRIPOS>BOND
     1     1    19 1   
     2     1    26 1   
     3     1    27 1   
     4     1    28 1   
     5     2    19 1   
     6     2    29 1   
     7     2    30 1   
     8     2    31 1   
     9     3     4 1   
    10     3    19 1   
    11     3    32 1   
    12     3    33 1   
    13     4     5 1   
    14     4    34 1   
    15     4    35 1   
    16     5     6 1   
    17     5    36 1   
    18     5    37 1   
    19     6     7 ar  
    20     6    18 ar  
    21     7     8 ar  
    22     7    38 1   
    23     8     9 ar  
    24     8    39 1   
    25     9    17 ar  
    26     9    22 1   
    27    10    15 ar  
    28    10    20 ar  
    29    10    22 1   
    30    11    12 ar  
    31    11    20 ar  
    32    11    21 1   
    33    12    13 1   
    34    12    14 ar  
    35    13    23 1   
    36    13    24 1   
    37    14    15 ar  
    38    14    40 1   
    39    15    16 1   
    40    16    17 1   
    41    16    25 2   
    42    17    18 ar  
    43    18    41 1   
    44    21    42 1   
    45    21    43 1   
@<TRIPOS>SUBSTRUCTURE
     1 F8M         1 TEMP              0 ****  ****    0 ROOT
