@<TRIPOS>MOLECULE
molecule
   63    66     1     0     0
SMALL
bcc


@<TRIPOS>ATOM
      1 C1           0.0000     0.0000     0.0000 c3         1 F8N      -0.131000
      2 N4           0.3220    -7.3380     0.2730 na         1 F8N      -0.190900
      3 C5          -0.2200    -8.0540    -0.7340 cc         1 F8N       0.393400
      4 C6          -4.1620     1.0730    -1.4320 cp         1 F8N      -0.032000
      5 C8          -0.5110     0.0800    -1.4400 c3         1 F8N      -0.021100
      6 C11         -2.7710     1.1520    -1.4280 ca         1 F8N      -0.109000
      7 C13         -6.3690     2.2310    -1.4140 ca         1 F8N      -0.151000
      8 C14         -2.0160    -0.0050    -1.4440 ca         1 F8N      -0.089300
      9 C23         -4.3560     3.5570    -1.3840 ca         1 F8N      -0.159000
     10 C24         -4.7830    -0.1740    -1.4520 ca         1 F8N      -0.113000
     11 C25         -4.0190    -1.3240    -1.4670 ca         1 F8N      -0.121000
     12 C2          -0.5050    -1.2640     0.6450 c          1 F8N       0.671100
     13 N16         -0.0700    -2.4620     0.2090 ns         1 F8N      -0.591900
     14 C27         -0.4790    -3.6870     0.9030 c3         1 F8N       0.112000
     15 C19          0.1480    -4.9000     0.2110 c3         1 F8N      -0.124400
     16 C18         -0.2780    -6.1780     0.9360 c3         1 F8N       0.047300
     17 C10          1.5350    -7.9020     0.5650 cc         1 F8N      -0.280600
     18 C9           1.6950    -8.9390    -0.2790 cd         1 F8N       0.313200
     19 N3           0.6050    -9.0130    -1.0570 nd         1 F8N      -0.696000
     20 C21          1.5320     0.0000     0.0000 c3         1 F8N      -0.101900
     21 C30          2.0350     0.0000     1.4470 c3         1 F8N       0.132400
     22 O15          1.5090     1.1390     2.1320 os         1 F8N      -0.423600
     23 C29          0.0820     1.1680     2.2040 c3         1 F8N       0.132400
     24 C20         -0.4990     1.2160     0.7880 c3         1 F8N      -0.101900
     25 C28         -2.6380    -1.2390    -1.4640 ca         1 F8N      -0.118000
     26 C7          -4.9780     2.3110    -1.4090 cp         1 F8N       0.001000
     27 C26         -5.1180     4.7080    -1.3620 ca         1 F8N      -0.088000
     28 C31         -6.4970     4.6290    -1.3770 ca         1 F8N      -0.220000
     29 C17         -7.1250     3.3910    -1.3980 ca         1 F8N       0.143100
     30 O22         -8.4820     3.3170    -1.4020 os         1 F8N      -0.329900
     31 C32         -9.1990     4.5530    -1.3850 c3         1 F8N       0.129700
     32 H1          -1.1820    -7.8670    -1.1960 h5         1 F8N       0.063100
     33 H2          -0.1020    -0.7420    -2.0150 hc         1 F8N       0.052700
     34 H3          -0.2010     1.0190    -1.8820 hc         1 F8N       0.052700
     35 H4          -2.2820     2.1180    -1.4130 ha         1 F8N       0.135000
     36 H5          -6.8570     1.2640    -1.4290 ha         1 F8N       0.147000
     37 H6          -3.2740     3.6230    -1.3720 ha         1 F8N       0.133000
     38 H7          -5.8640    -0.2420    -1.4550 ha         1 F8N       0.137000
     39 H8          -4.5010    -2.2940    -1.4820 ha         1 F8N       0.131000
     40 H9           0.5550    -2.5140    -0.5710 hn         1 F8N       0.315500
     41 H10         -1.5580    -3.7740     0.8760 h1         1 F8N       0.055200
     42 H11         -0.1460    -3.6460     1.9330 h1         1 F8N       0.055200
     43 H12          1.2280    -4.8120     0.2390 hc         1 F8N       0.058700
     44 H13         -0.1850    -4.9400    -0.8190 hc         1 F8N       0.058700
     45 H14          0.0560    -6.1370     1.9660 h1         1 F8N       0.066200
     46 H15         -1.3570    -6.2650     0.9100 h1         1 F8N       0.066200
     47 H16          2.2350    -7.5730     1.3240 h4         1 F8N       0.173000
     48 H17          2.5500    -9.6030    -0.3170 h4         1 F8N       0.041100
     49 H18          1.8930    -0.8860    -0.5070 hc         1 F8N       0.057950
     50 H19          1.8930     0.8860    -0.5070 hc         1 F8N       0.057950
     51 H20          1.7020    -0.9040     1.9430 h1         1 F8N       0.056200
     52 H21          3.1170     0.0450     1.4520 h1         1 F8N       0.056200
     53 H22         -0.2330     2.0480     2.7520 h1         1 F8N       0.056200
     54 H23         -0.2720     0.2770     2.7090 h1         1 F8N       0.056200
     55 H24         -1.5810     1.1920     0.8420 hc         1 F8N       0.057950
     56 H25         -0.1750     2.1240     0.2950 hc         1 F8N       0.057950
     57 H26         -2.0430    -2.1440    -1.4760 ha         1 F8N       0.128000
     58 H27         -4.6320     5.6770    -1.3450 ha         1 F8N       0.131000
     59 H28         -7.0910     5.5360    -1.3630 ha         1 F8N       0.135000
     60 H29         -8.9410     5.1080    -0.4910 h1         1 F8N       0.041367
     61 H30        -10.2640     4.3530    -1.3920 h1         1 F8N       0.041367
     62 H31         -8.9360     5.1350    -2.2600 h1         1 F8N       0.041367
     63 O12         -1.3020    -1.2030     1.5570 o          1 F8N      -0.599100
@<TRIPOS>BOND
     1    27    28 ar
     2    27     9 ar
     3    28    29 ar
     4    30    29 1
     5    30    31 1
     6    29     7 ar
     7     9    26 ar
     8    10    11 ar
     9    10     4 ar
    10     7    26 ar
    11    26     4 1
    12    11    25 ar
    13     4     6 ar
    14    19     3 2
    15    19    18 1
    16    23    22 1
    17    23    24 1
    18    25     8 ar
    19     3     2 1
    20    18    17 2
    21    22    21 1
    22     6     8 ar
    23    24     1 1
    24     8     5 1
    25     2    17 1
    26     2    16 1
    27    21    20 1
    28    16    15 1
    29    15    14 1
    30     1     5 1
    31     1    20 1
    32     1    12 1
    33    13    12 1
    34    13    14 1
    35    12    63 2
    36     3    32 1
    37     5    33 1
    38     5    34 1
    39     6    35 1
    40     7    36 1
    41     9    37 1
    42    10    38 1
    43    11    39 1
    44    13    40 1
    45    14    41 1
    46    14    42 1
    47    15    43 1
    48    15    44 1
    49    16    45 1
    50    16    46 1
    51    17    47 1
    52    18    48 1
    53    20    49 1
    54    20    50 1
    55    21    51 1
    56    21    52 1
    57    23    53 1
    58    23    54 1
    59    24    55 1
    60    24    56 1
    61    25    57 1
    62    27    58 1
    63    28    59 1
    64    31    60 1
    65    31    61 1
    66    31    62 1
@<TRIPOS>SUBSTRUCTURE
     1 F8N         1 TEMP              0 ****  ****    0 ROOT
