@<TRIPOS>MOLECULE
F8N
   63    66     1     0     0
SMALL
bcc


@<TRIPOS>ATOM
      1 C1           0.0000     0.0000     0.0000 c3         1 F8N      -0.130000
      2 N4           0.3220    -7.3380     0.2730 na         1 F8N       0.281100
      3 C5          -0.2200    -8.0540    -0.7340 cc         1 F8N       0.222400
      4 C6          -4.1620     1.0730    -1.4320 cp         1 F8N      -0.026000
      5 C8          -0.5110     0.0800    -1.4400 c3         1 F8N       0.042900
      6 C11         -2.7710     1.1520    -1.4280 ca         1 F8N      -0.090000
      7 C13         -6.3690     2.2310    -1.4140 ca         1 F8N      -0.141000
      8 C14         -2.0160    -0.0050    -1.4440 ca         1 F8N      -0.094300
      9 C23         -4.3560     3.5570    -1.3840 ca         1 F8N      -0.145000
     10 C24         -4.7830    -0.1740    -1.4520 ca         1 F8N      -0.094000
     11 C25         -4.0190    -1.3240    -1.4670 ca         1 F8N      -0.089000
     12 C2          -0.5050    -1.2640     0.6450 c          1 F8N       0.588100
     13 N16         -0.0700    -2.4620     0.2090 ns         1 F8N      -0.212900
     14 C27         -0.4790    -3.6870     0.9030 c3         1 F8N       0.054000
     15 C19          0.1480    -4.9000     0.2110 c3         1 F8N      -0.062400
     16 C18         -0.2780    -6.1780     0.9360 c3         1 F8N      -0.034700
     17 C10          1.5350    -7.9020     0.5650 cc         1 F8N      -0.435600
     18 C9           1.6950    -8.9390    -0.2790 cd         1 F8N       0.327200
     19 N3           0.6050    -9.0130    -1.0570 nd         1 F8N      -0.620000
     20 C21          1.5320     0.0000     0.0000 c3         1 F8N      -0.058400
     21 C30          2.0350     0.0000     1.4470 c3         1 F8N       0.201400
     22 O15          1.5090     1.1390     2.1320 os         1 F8N      -0.408600
     23 C29          0.0820     1.1680     2.2040 c3         1 F8N       0.201400
     24 C20         -0.4990     1.2160     0.7880 c3         1 F8N      -0.058400
     25 C28         -2.6380    -1.2390    -1.4640 ca         1 F8N      -0.101000
     26 C7          -4.9780     2.3110    -1.4090 cp         1 F8N       0.009000
     27 C26         -5.1180     4.7080    -1.3620 ca         1 F8N      -0.052000
     28 C31         -6.4970     4.6290    -1.3770 ca         1 F8N      -0.211000
     29 C17         -7.1250     3.3910    -1.3980 ca         1 F8N       0.155100
     30 O22         -8.4820     3.3170    -1.4020 os         1 F8N      -0.308900
     31 C32         -9.1990     4.5530    -1.3850 c3         1 F8N       0.244700
     32 H1          -1.1820    -7.8670    -1.1960 h5         1 F8N       0.022100
     33 H2          -0.1020    -0.7420    -2.0150 hc         1 F8N       0.022200
     34 H3          -0.2010     1.0190    -1.8820 hc         1 F8N       0.022200
     35 H4          -2.2820     2.1180    -1.4130 ha         1 F8N       0.118000
     36 H5          -6.8570     1.2640    -1.4290 ha         1 F8N       0.125000
     37 H6          -3.2740     3.6230    -1.3720 ha         1 F8N       0.113000
     38 H7          -5.8640    -0.2420    -1.4550 ha         1 F8N       0.114000
     39 H8          -4.5010    -2.2940    -1.4820 ha         1 F8N       0.102000
     40 H9           0.5550    -2.5140    -0.5710 hn         1 F8N       0.182500
     41 H10         -1.5580    -3.7740     0.8760 h1         1 F8N       0.029200
     42 H11         -0.1460    -3.6460     1.9330 h1         1 F8N       0.029200
     43 H12          1.2280    -4.8120     0.2390 hc         1 F8N       0.028700
     44 H13         -0.1850    -4.9400    -0.8190 hc         1 F8N       0.028700
     45 H14          0.0560    -6.1370     1.9660 h1         1 F8N       0.039200
     46 H15         -1.3570    -6.2650     0.9100 h1         1 F8N       0.039200
     47 H16          2.2350    -7.5730     1.3240 h4         1 F8N       0.152000
     48 H17          2.5500    -9.6030    -0.3170 h4         1 F8N       0.003100
     49 H18          1.8930    -0.8860    -0.5070 hc         1 F8N       0.031700
     50 H19          1.8930     0.8860    -0.5070 hc         1 F8N       0.031700
     51 H20          1.7020    -0.9040     1.9430 h1         1 F8N       0.017950
     52 H21          3.1170     0.0450     1.4520 h1         1 F8N       0.017950
     53 H22         -0.2330     2.0480     2.7520 h1         1 F8N       0.017950
     54 H23         -0.2720     0.2770     2.7090 h1         1 F8N       0.017950
     55 H24         -1.5810     1.1920     0.8420 hc         1 F8N       0.031700
     56 H25         -0.1750     2.1240     0.2950 hc         1 F8N       0.031700
     57 H26         -2.0430    -2.1440    -1.4760 ha         1 F8N       0.100000
     58 H27         -4.6320     5.6770    -1.3450 ha         1 F8N       0.100000
     59 H28         -7.0910     5.5360    -1.3630 ha         1 F8N       0.120000
     60 H29         -8.9410     5.1080    -0.4910 h1         1 F8N      -0.002300
     61 H30        -10.2640     4.3530    -1.3920 h1         1 F8N      -0.002300
     62 H31         -8.9360     5.1350    -2.2600 h1         1 F8N      -0.002300
     63 O12         -1.3020    -1.2030     1.5570 o          1 F8N      -0.635100
@<TRIPOS>BOND
     1     1     5 1   
     2     1    12 1   
     3     1    20 1   
     4     1    24 1   
     5     2     3 1   
     6     2    16 1   
     7     2    17 1   
     8     3    19 2   
     9     3    32 1   
    10     4     6 ar  
    11     4    10 ar  
    12     4    26 1   
    13     5     8 1   
    14     5    33 1   
    15     5    34 1   
    16     6     8 ar  
    17     6    35 1   
    18     7    26 ar  
    19     7    29 ar  
    20     7    36 1   
    21     8    25 ar  
    22     9    26 ar  
    23     9    27 ar  
    24     9    37 1   
    25    10    11 ar  
    26    10    38 1   
    27    11    25 ar  
    28    11    39 1   
    29    12    13 1   
    30    12    63 2   
    31    13    14 1   
    32    13    40 1   
    33    14    15 1   
    34    14    41 1   
    35    14    42 1   
    36    15    16 1   
    37    15    43 1   
    38    15    44 1   
    39    16    45 1   
    40    16    46 1   
    41    17    18 2   
    42    17    47 1   
    43    18    19 1   
    44    18    48 1   
    45    20    21 1   
    46    20    49 1   
    47    20    50 1   
    48    21    22 1   
    49    21    51 1   
    50    21    52 1   
    51    22    23 1   
    52    23    24 1   
    53    23    53 1   
    54    23    54 1   
    55    24    55 1   
    56    24    56 1   
    57    25    57 1   
    58    27    28 ar  
    59    27    58 1   
    60    28    29 ar  
    61    28    59 1   
    62    29    30 1   
    63    30    31 1   
    64    31    60 1   
    65    31    61 1   
    66    31    62 1   
@<TRIPOS>SUBSTRUCTURE
     1 F8N         1 TEMP              0 ****  ****    0 ROOT
