@<TRIPOS>MOLECULE
molecule
   42    45     1     0     0
SMALL
bcc


@<TRIPOS>ATOM
      1 C02          0.0000     0.0000     0.0000 ca         1 F8P       0.752200
      2 C04         -0.0890    -0.0120     2.3160 ca         1 F8P       0.672600
      3 C06         -0.3250     0.2780     4.6430 ca         1 F8P       0.190100
      4 C07         -1.1760     0.5710     5.7040 ca         1 F8P      -0.166000
      5 C08         -0.6570     0.8730     6.9450 ca         1 F8P      -0.080000
      6 C09          0.7130     0.8920     7.1550 ca         1 F8P      -0.140300
      7 C10          1.2610     1.2210     8.5210 c3         1 F8P      -0.019400
      8 C11          0.7420     0.2020     9.5380 c3         1 F8P      -0.074400
      9 C12          1.2980     0.5370    10.9230 c3         1 F8P      -0.120400
     10 C13          0.8430     1.9390    11.3300 c3         1 F8P       0.398600
     11 C16          1.3610     2.9590    10.3130 c3         1 F8P      -0.120400
     12 C17          0.8050     2.6250     8.9280 c3         1 F8P      -0.074400
     13 C18          1.5760     0.6070     6.1180 ca         1 F8P      -0.038000
     14 C19          1.0620     0.3040     4.8600 ca         1 F8P      -0.229600
     15 C20          1.9560     0.0090     3.7190 c          1 F8P       0.601300
     16 C22          1.3180    -0.0030     2.3890 ca         1 F8P      -0.385900
     17 C23          2.0830     0.0000     1.2250 ca         1 F8P       0.022000
     18 C24          1.4100     0.0000     0.0000 ca         1 F8P      -0.264900
     19 C25          2.1600     0.0010    -1.2670 c          1 F8P       0.888200
     20 F14          1.3510     2.2460    12.5970 f          1 F8P      -0.244800
     21 F15         -0.5550     1.9850    11.3650 f          1 F8P      -0.244800
     22 N01         -0.6760     0.0010    -1.2000 nv         1 F8P      -1.032500
     23 N03         -0.6850    -0.0070     1.1300 nb         1 F8P      -0.784000
     24 O05         -0.8370    -0.0310     3.4350 os         1 F8P      -0.340400
     25 O21          3.1460    -0.2080     3.8690 o          1 F8P      -0.545100
     26 O26          1.5680     0.1100    -2.3230 o          1 F8P      -0.827800
     27 O27          3.5020    -0.1190    -1.2560 o          1 F8P      -0.827800
     28 H1          -2.2480     0.5600     5.5550 ha         1 F8P       0.145000
     29 H2          -1.3280     1.0980     7.7660 ha         1 F8P       0.131000
     30 H3           2.3430     1.1870     8.4990 hc         1 F8P       0.058700
     31 H4          -0.3400     0.2400     9.5660 hc         1 F8P       0.057950
     32 H5           1.0670    -0.7900     9.2500 hc         1 F8P       0.057950
     33 H6           0.9290    -0.1840    11.6430 hc         1 F8P       0.063700
     34 H7           2.3810     0.5040    10.8950 hc         1 F8P       0.063700
     35 H8           1.0360     3.9520    10.6010 hc         1 F8P       0.063700
     36 H9           2.4430     2.9220    10.2850 hc         1 F8P       0.063700
     37 H10          1.1750     3.3450     8.2080 hc         1 F8P       0.057950
     38 H11         -0.2770     2.6580     8.9560 hc         1 F8P       0.057950
     39 H12          2.6470     0.6210     6.2800 ha         1 F8P       0.151000
     40 H13          3.1650    -0.0000     1.2680 ha         1 F8P       0.186000
     41 H14         -1.2080     0.8030    -1.4730 hn         1 F8P       0.438300
     42 H15         -0.6710    -0.8160    -1.7780 hn         1 F8P       0.438300
@<TRIPOS>BOND
     1    26    19 1
     2    22     1 1
     3    19    27 1
     4    19    18 1
     5     1    18 ar
     6     1    23 ar
     7    18    17 ar
     8    23     2 ar
     9    17    16 ar
    10     2    16 ar
    11     2    24 1
    12    16    15 1
    13    24     3 1
    14    15    25 2
    15    15    14 1
    16     3     4 ar
    17     3    14 ar
    18     4     5 ar
    19    14    13 ar
    20     5     6 ar
    21    13     6 ar
    22     6     7 1
    23     7     8 1
    24     7    12 1
    25     8     9 1
    26    12    11 1
    27     9    10 1
    28    11    10 1
    29    20    10 1
    30    10    21 1
    31     4    28 1
    32     5    29 1
    33     7    30 1
    34     8    31 1
    35     8    32 1
    36     9    33 1
    37     9    34 1
    38    11    35 1
    39    11    36 1
    40    12    37 1
    41    12    38 1
    42    13    39 1
    43    17    40 1
    44    22    41 1
    45    22    42 1
@<TRIPOS>SUBSTRUCTURE
     1 F8P         1 TEMP              0 ****  ****    0 ROOT
