@<TRIPOS>MOLECULE
F8P
   42    45     1     0     0
SMALL
bcc


@<TRIPOS>ATOM
      1 C02          0.0000     0.0000     0.0000 ca         1 F8P       0.563200
      2 C04         -0.0890    -0.0120     2.3160 ca         1 F8P       0.622600
      3 C06         -0.3250     0.2780     4.6430 ca         1 F8P       0.196100
      4 C07         -1.1760     0.5710     5.7040 ca         1 F8P      -0.155000
      5 C08         -0.6570     0.8730     6.9450 ca         1 F8P      -0.051000
      6 C09          0.7130     0.8920     7.1550 ca         1 F8P      -0.158300
      7 C10          1.2610     1.2210     8.5210 c3         1 F8P       0.015600
      8 C11          0.7420     0.2020     9.5380 c3         1 F8P      -0.023900
      9 C12          1.2980     0.5370    10.9230 c3         1 F8P      -0.070400
     10 C13          0.8430     1.9390    11.3300 c3         1 F8P       0.370600
     11 C16          1.3610     2.9590    10.3130 c3         1 F8P      -0.070400
     12 C17          0.8050     2.6250     8.9280 c3         1 F8P      -0.023900
     13 C18          1.5760     0.6070     6.1180 ca         1 F8P       0.001000
     14 C19          1.0620     0.3040     4.8600 ca         1 F8P      -0.247600
     15 C20          1.9560     0.0090     3.7190 c          1 F8P       0.670300
     16 C22          1.3180    -0.0030     2.3890 ca         1 F8P      -0.408900
     17 C23          2.0830     0.0000     1.2250 ca         1 F8P       0.067000
     18 C24          1.4100     0.0000     0.0000 ca         1 F8P      -0.272900
     19 C25          2.1600     0.0010    -1.2670 c          1 F8P       0.983200
     20 F14          1.3510     2.2460    12.5970 f          1 F8P      -0.226800
     21 F15         -0.5550     1.9850    11.3650 f          1 F8P      -0.226800
     22 N01         -0.6760     0.0010    -1.2000 nv         1 F8P      -0.583500
     23 N03         -0.6850    -0.0070     1.1300 nb         1 F8P      -0.669000
     24 O05         -0.8370    -0.0310     3.4350 os         1 F8P      -0.310400
     25 O21          3.1460    -0.2080     3.8690 o          1 F8P      -0.580100
     26 O26          1.5680     0.1100    -2.3230 o          1 F8P      -0.878300
     27 O27          3.5020    -0.1190    -1.2560 o          1 F8P      -0.878300
     28 H1          -2.2480     0.5600     5.5550 ha         1 F8P       0.117000
     29 H2          -1.3280     1.0980     7.7660 ha         1 F8P       0.105000
     30 H3           2.3430     1.1870     8.4990 hc         1 F8P       0.034700
     31 H4          -0.3400     0.2400     9.5660 hc         1 F8P       0.031200
     32 H5           1.0670    -0.7900     9.2500 hc         1 F8P       0.031200
     33 H6           0.9290    -0.1840    11.6430 hc         1 F8P       0.036700
     34 H7           2.3810     0.5040    10.8950 hc         1 F8P       0.036700
     35 H8           1.0360     3.9520    10.6010 hc         1 F8P       0.036700
     36 H9           2.4430     2.9220    10.2850 hc         1 F8P       0.036700
     37 H10          1.1750     3.3450     8.2080 hc         1 F8P       0.031200
     38 H11         -0.2770     2.6580     8.9560 hc         1 F8P       0.031200
     39 H12          2.6470     0.6210     6.2800 ha         1 F8P       0.121000
     40 H13          3.1650    -0.0000     1.2680 ha         1 F8P       0.151000
     41 H14         -1.2080     0.8030    -1.4730 hn         1 F8P       0.273800
     42 H15         -0.6710    -0.8160    -1.7780 hn         1 F8P       0.273800
@<TRIPOS>BOND
     1     1    18 ar  
     2     1    22 1   
     3     1    23 ar  
     4     2    16 ar  
     5     2    23 ar  
     6     2    24 1   
     7     3     4 ar  
     8     3    14 ar  
     9     3    24 1   
    10     4     5 ar  
    11     4    28 1   
    12     5     6 ar  
    13     5    29 1   
    14     6     7 1   
    15     6    13 ar  
    16     7     8 1   
    17     7    12 1   
    18     7    30 1   
    19     8     9 1   
    20     8    31 1   
    21     8    32 1   
    22     9    10 1   
    23     9    33 1   
    24     9    34 1   
    25    10    11 1   
    26    10    20 1   
    27    10    21 1   
    28    11    12 1   
    29    11    35 1   
    30    11    36 1   
    31    12    37 1   
    32    12    38 1   
    33    13    14 ar  
    34    13    39 1   
    35    14    15 1   
    36    15    16 1   
    37    15    25 2   
    38    16    17 ar  
    39    17    18 ar  
    40    17    40 1   
    41    18    19 1   
    42    19    26 1   
    43    19    27 1   
    44    22    41 1   
    45    22    42 1   
@<TRIPOS>SUBSTRUCTURE
     1 F8P         1 TEMP              0 ****  ****    0 ROOT
