@<TRIPOS>MOLECULE
molecule
   54    56     1     0     0
SMALL
bcc


@<TRIPOS>ATOM
      1 F17          0.0000     0.0000     0.0000 f          1 F8Q      -0.109900
      2 C12          1.3500     0.0000     0.0000 ca         1 F8Q       0.173900
      3 C7           2.0500     0.0000     1.2090 cp         1 F8Q      -0.087000
      4 C6           1.3100    -0.0010     2.4950 cp         1 F8Q      -0.017000
      5 C5           1.6340    -0.9250     3.4860 ca         1 F8Q      -0.148000
      6 C4           0.9400    -0.9200     4.6840 ca         1 F8Q       0.145100
      7 O13          1.2530    -1.8180     5.6540 os         1 F8Q      -0.330900
      8 C14          0.4960    -1.7550     6.8660 c3         1 F8Q       0.127700
      9 C3          -0.0750     0.0040     4.8960 ca         1 F8Q      -0.209000
     10 C2          -0.3970     0.9210     3.9130 ca         1 F8Q      -0.084000
     11 C1           0.2930     0.9260     2.7160 ca         1 F8Q      -0.144000
     12 C11          2.0450    -0.0070    -1.1970 ca         1 F8Q       0.018100
     13 O15          1.3660    -0.0110    -2.3780 os         1 F8Q      -0.341900
     14 C16          1.0440     1.2590    -2.9460 c3         1 F8Q       0.122700
     15 C10          3.4380    -0.0070    -1.1940 ca         1 F8Q       0.167600
     16 C9           4.1310    -0.0010     0.0100 ca         1 F8Q      -0.211000
     17 C8           3.4440    -0.0010     1.2050 ca         1 F8Q      -0.058000
     18 N18          4.1390    -0.0120    -2.4040 nu         1 F8Q      -0.669000
     19 C19          5.5270    -0.1760    -2.4060 ca         1 F8Q       0.222600
     20 C24          6.1180    -1.1120    -1.5670 ca         1 F8Q      -0.163000
     21 C23          7.4900    -1.2710    -1.5720 ca         1 F8Q      -0.077500
     22 C22          8.2750    -0.5000    -2.4100 ca         1 F8Q      -0.227300
     23 C21          7.6880     0.4330    -3.2470 ca         1 F8Q      -0.077500
     24 C20          6.3170     0.5920    -3.2510 ca         1 F8Q      -0.163000
     25 C25          9.7720    -0.6760    -2.4120 c3         1 F8Q       0.168100
     26 N26         10.1440    -1.6950    -3.4040 nx         1 F8Q      -0.655400
     27 C28          9.8070    -1.2120    -4.7500 c3         1 F8Q       0.089100
     28 C27         11.5870    -1.9520    -3.3230 c3         1 F8Q       0.089100
     29 H1           2.3640    -1.7000     3.2870 ha         1 F8Q       0.143000
     30 H2           0.6230    -0.7800     7.3200 h1         1 F8Q       0.045367
     31 H3          -0.5520    -1.9190     6.6460 h1         1 F8Q       0.045367
     32 H4           0.8460    -2.5200     7.5490 h1         1 F8Q       0.045367
     33 H5          -0.6180     0.0050     5.8340 ha         1 F8Q       0.141000
     34 H6          -1.1880     1.6410     4.0830 ha         1 F8Q       0.138000
     35 H7           0.0390     1.6460     1.9480 ha         1 F8Q       0.137000
     36 H8          -0.0200     1.4380    -2.8490 h1         1 F8Q       0.042367
     37 H9           1.3170     1.2660    -3.9940 h1         1 F8Q       0.042367
     38 H10          1.5900     2.0370    -2.4260 h1         1 F8Q       0.042367
     39 H11          5.2140    -0.0010     0.0090 ha         1 F8Q       0.142000
     40 H12          3.9880     0.0020     2.1420 ha         1 F8Q       0.153000
     41 H13          3.6420     0.0480    -3.2700 hn         1 F8Q       0.471800
     42 H14          5.5040    -1.7170    -0.9110 ha         1 F8Q       0.166500
     43 H15          7.9520    -2.0010    -0.9180 ha         1 F8Q       0.134500
     44 H16          8.3050     1.0340    -3.9040 ha         1 F8Q       0.134500
     45 H17          5.8590     1.3230    -3.9070 ha         1 F8Q       0.166500
     46 H18         10.0990    -0.9930    -1.4290 hx         1 F8Q       0.103200
     47 H19         10.2460     0.2640    -2.6650 hx         1 F8Q       0.103200
     48 H20          9.6430    -2.5410    -3.2180 hn         1 F8Q       0.452800
     49 H21          8.7460    -1.3400    -4.9250 hx         1 F8Q       0.099700
     50 H22         10.3660    -1.7770    -5.4860 hx         1 F8Q       0.099700
     51 H23         10.0630    -0.1620    -4.8310 hx         1 F8Q       0.099700
     52 H24         12.1300    -1.0500    -3.5800 hx         1 F8Q       0.099700
     53 H25         11.8520    -2.7430    -4.0150 hx         1 F8Q       0.099700
     54 H26         11.8450    -2.2530    -2.3150 hx         1 F8Q       0.099700
@<TRIPOS>BOND
     1     8     7 1
     2     9    10 ar
     3     9     6 ar
     4     7     6 1
     5    10    11 ar
     6     6     5 ar
     7    11     4 ar
     8     5     4 ar
     9     4     3 1
    10    17     3 ar
    11    17    16 ar
    12     3     2 ar
    13    16    15 ar
    14     2     1 1
    15     2    12 ar
    16    21    20 ar
    17    21    22 ar
    18    25    22 1
    19    25    26 1
    20    20    19 ar
    21    15    12 ar
    22    15    18 1
    23    22    23 ar
    24    12    13 1
    25    27    26 1
    26    26    28 1
    27    19    18 1
    28    19    24 ar
    29    23    24 ar
    30    13    14 1
    31     5    29 1
    32     8    30 1
    33     8    31 1
    34     8    32 1
    35     9    33 1
    36    10    34 1
    37    11    35 1
    38    14    36 1
    39    14    37 1
    40    14    38 1
    41    16    39 1
    42    17    40 1
    43    18    41 1
    44    20    42 1
    45    21    43 1
    46    23    44 1
    47    24    45 1
    48    25    46 1
    49    25    47 1
    50    26    48 1
    51    27    49 1
    52    27    50 1
    53    27    51 1
    54    28    52 1
    55    28    53 1
    56    28    54 1
@<TRIPOS>SUBSTRUCTURE
     1 F8Q         1 TEMP              0 ****  ****    0 ROOT
