@<TRIPOS>MOLECULE
F8Q
   54    56     1     0     0
SMALL
bcc


@<TRIPOS>ATOM
      1 F17          0.0000     0.0000     0.0000 f          1 F8Q      -0.108900
      2 C12          1.3500     0.0000     0.0000 ca         1 F8Q       0.145900
      3 C7           2.0500     0.0000     1.2090 cp         1 F8Q      -0.066000
      4 C6           1.3100    -0.0010     2.4950 cp         1 F8Q      -0.011000
      5 C5           1.6340    -0.9250     3.4860 ca         1 F8Q      -0.135000
      6 C4           0.9400    -0.9200     4.6840 ca         1 F8Q       0.156100
      7 O13          1.2530    -1.8180     5.6540 os         1 F8Q      -0.309900
      8 C14          0.4960    -1.7550     6.8660 c3         1 F8Q       0.244700
      9 C3          -0.0750     0.0040     4.8960 ca         1 F8Q      -0.199000
     10 C2          -0.3970     0.9210     3.9130 ca         1 F8Q      -0.047000
     11 C1           0.2930     0.9260     2.7160 ca         1 F8Q      -0.126000
     12 C11          2.0450    -0.0070    -1.1970 ca         1 F8Q       0.042100
     13 O15          1.3660    -0.0110    -2.3780 os         1 F8Q      -0.323900
     14 C16          1.0440     1.2590    -2.9460 c3         1 F8Q       0.243700
     15 C10          3.4380    -0.0070    -1.1940 ca         1 F8Q       0.002600
     16 C9           4.1310    -0.0010     0.0100 ca         1 F8Q      -0.190000
     17 C8           3.4440    -0.0010     1.2050 ca         1 F8Q      -0.032000
     18 N18          4.1390    -0.0120    -2.4040 nu         1 F8Q      -0.205000
     19 C19          5.5270    -0.1760    -2.4060 ca         1 F8Q       0.072600
     20 C24          6.1180    -1.1120    -1.5670 ca         1 F8Q      -0.139000
     21 C23          7.4900    -1.2710    -1.5720 ca         1 F8Q      -0.040500
     22 C22          8.2750    -0.5000    -2.4100 ca         1 F8Q      -0.251300
     23 C21          7.6880     0.4330    -3.2470 ca         1 F8Q      -0.040500
     24 C20          6.3170     0.5920    -3.2510 ca         1 F8Q      -0.139000
     25 C25          9.7720    -0.6760    -2.4120 c3         1 F8Q       0.068100
     26 N26         10.1440    -1.6950    -3.4040 nx         1 F8Q       0.028600
     27 C28          9.8070    -1.2120    -4.7500 c3         1 F8Q       0.008100
     28 C27         11.5870    -1.9520    -3.3230 c3         1 F8Q       0.008100
     29 H1           2.3640    -1.7000     3.2870 ha         1 F8Q       0.117000
     30 H2           0.6230    -0.7800     7.3200 h1         1 F8Q       0.000367
     31 H3          -0.5520    -1.9190     6.6460 h1         1 F8Q       0.000367
     32 H4           0.8460    -2.5200     7.5490 h1         1 F8Q       0.000367
     33 H5          -0.6180     0.0050     5.8340 ha         1 F8Q       0.125000
     34 H6          -1.1880     1.6410     4.0830 ha         1 F8Q       0.107000
     35 H7           0.0390     1.6460     1.9480 ha         1 F8Q       0.113000
     36 H8          -0.0200     1.4380    -2.8490 h1         1 F8Q      -0.001967
     37 H9           1.3170     1.2660    -3.9940 h1         1 F8Q      -0.001967
     38 H10          1.5900     2.0370    -2.4260 h1         1 F8Q      -0.001967
     39 H11          5.2140    -0.0010     0.0090 ha         1 F8Q       0.127000
     40 H12          3.9880     0.0020     2.1420 ha         1 F8Q       0.120000
     41 H13          3.6420     0.0480    -3.2700 hn         1 F8Q       0.307800
     42 H14          5.5040    -1.7170    -0.9110 ha         1 F8Q       0.139000
     43 H15          7.9520    -2.0010    -0.9180 ha         1 F8Q       0.106000
     44 H16          8.3050     1.0340    -3.9040 ha         1 F8Q       0.106000
     45 H17          5.8590     1.3230    -3.9070 ha         1 F8Q       0.139000
     46 H18         10.0990    -0.9930    -1.4290 hx         1 F8Q       0.075700
     47 H19         10.2460     0.2640    -2.6650 hx         1 F8Q       0.075700
     48 H20          9.6430    -2.5410    -3.2180 hn         1 F8Q       0.259800
     49 H21          8.7460    -1.3400    -4.9250 hx         1 F8Q       0.072033
     50 H22         10.3660    -1.7770    -5.4860 hx         1 F8Q       0.072033
     51 H23         10.0630    -0.1620    -4.8310 hx         1 F8Q       0.072033
     52 H24         12.1300    -1.0500    -3.5800 hx         1 F8Q       0.072033
     53 H25         11.8520    -2.7430    -4.0150 hx         1 F8Q       0.072033
     54 H26         11.8450    -2.2530    -2.3150 hx         1 F8Q       0.072033
@<TRIPOS>BOND
     1     1     2 1   
     2     2     3 ar  
     3     2    12 ar  
     4     3     4 1   
     5     3    17 ar  
     6     4     5 ar  
     7     4    11 ar  
     8     5     6 ar  
     9     5    29 1   
    10     6     7 1   
    11     6     9 ar  
    12     7     8 1   
    13     8    30 1   
    14     8    31 1   
    15     8    32 1   
    16     9    10 ar  
    17     9    33 1   
    18    10    11 ar  
    19    10    34 1   
    20    11    35 1   
    21    12    13 1   
    22    12    15 ar  
    23    13    14 1   
    24    14    36 1   
    25    14    37 1   
    26    14    38 1   
    27    15    16 ar  
    28    15    18 1   
    29    16    17 ar  
    30    16    39 1   
    31    17    40 1   
    32    18    19 1   
    33    18    41 1   
    34    19    20 ar  
    35    19    24 ar  
    36    20    21 ar  
    37    20    42 1   
    38    21    22 ar  
    39    21    43 1   
    40    22    23 ar  
    41    22    25 1   
    42    23    24 ar  
    43    23    44 1   
    44    24    45 1   
    45    25    26 1   
    46    25    46 1   
    47    25    47 1   
    48    26    27 1   
    49    26    28 1   
    50    26    48 1   
    51    27    49 1   
    52    27    50 1   
    53    27    51 1   
    54    28    52 1   
    55    28    53 1   
    56    28    54 1   
@<TRIPOS>SUBSTRUCTURE
     1 F8Q         1 TEMP              0 ****  ****    0 ROOT
