@<TRIPOS>MOLECULE
F8S
   42    45     1     0     0
SMALL
bcc


@<TRIPOS>ATOM
      1 C02          0.0000     0.0000     0.0000 ca         1 F8S       0.563200
      2 C04         -0.0890    -0.0120     2.3170 ca         1 F8S       0.620600
      3 C06         -0.3260     0.2780     4.6440 ca         1 F8S       0.199100
      4 C07         -1.1770     0.5720     5.7050 ca         1 F8S      -0.154000
      5 C08         -0.6580     0.8750     6.9460 ca         1 F8S      -0.050000
      6 C09          0.7130     0.8930     7.1560 ca         1 F8S      -0.163300
      7 C10          1.2600     1.2250     8.5210 c3         1 F8S       0.002600
      8 C11          0.8250     2.6360     8.9070 c3         1 F8S      -0.003400
      9 C12          1.5740     3.0860    10.1640 c3         1 F8S      -0.001100
     10 C16          1.4780     0.3670    10.8620 c3         1 F8S      -0.001100
     11 C17          0.7410     0.2060     9.5310 c3         1 F8S      -0.003400
     12 C18          1.5750     0.6080     6.1200 ca         1 F8S       0.003000
     13 C19          1.0600     0.3050     4.8610 ca         1 F8S      -0.248600
     14 C20          1.9560     0.0100     3.7210 c          1 F8S       0.670300
     15 C22          1.3170    -0.0030     2.3890 ca         1 F8S      -0.407900
     16 C23          2.0820     0.0000     1.2260 ca         1 F8S       0.065000
     17 C24          1.4100     0.0000     0.0000 ca         1 F8S      -0.268900
     18 C25          2.1600     0.0010    -1.2660 c          1 F8S       0.982200
     19 N01         -0.6770     0.0010    -1.2010 nv         1 F8S      -0.584500
     20 N03         -0.6860    -0.0060     1.1310 nb         1 F8S      -0.668000
     21 O05         -0.8370    -0.0300     3.4360 os         1 F8S      -0.310400
     22 O21          3.1440    -0.2080     3.8700 o          1 F8S      -0.578100
     23 O26          3.5020    -0.1200    -1.2540 o          1 F8S      -0.876800
     24 O27          1.5680     0.1100    -2.3230 o          1 F8S      -0.876800
     25 S13          1.1090     2.0080    11.5500 s6         1 F8S       0.786000
     26 H1          -2.2500     0.5570     5.5580 ha         1 F8S       0.118000
     27 H2          -1.3290     1.0980     7.7670 ha         1 F8S       0.105000
     28 H3           2.3420     1.1810     8.4970 hc         1 F8S       0.034700
     29 H4          -0.2400     2.6410     9.1030 hc         1 F8S       0.034700
     30 H5           1.3060     4.1100    10.3960 h1         1 F8S       0.068200
     31 H6           1.1460    -0.3980    11.5540 h1         1 F8S       0.068200
     32 H7           2.5450     0.2760    10.6970 h1         1 F8S       0.068200
     33 H8          -0.3190     0.3660     9.6880 hc         1 F8S       0.034700
     34 H9           0.9060    -0.7940     9.1490 hc         1 F8S       0.034700
     35 H10          2.6420     0.7380     6.2520 ha         1 F8S       0.120000
     36 H11          3.1650    -0.0000     1.2690 ha         1 F8S       0.151000
     37 H12         -1.2050     0.8050    -1.4760 hn         1 F8S       0.273300
     38 H13         -0.6920    -0.8250    -1.7660 hn         1 F8S       0.273300
     39 H15          1.0500     3.3150     8.0930 hc         1 F8S       0.034700
     40 H16          2.6420     3.0160     9.9930 h1         1 F8S       0.068200
     41 O14         -0.2940     2.1090    11.7540 o          1 F8S      -0.592800
     42 O15          1.9920     2.2550    12.6350 o          1 F8S      -0.592800
@<TRIPOS>BOND
     1     1    17 ar  
     2     1    19 1   
     3     1    20 ar  
     4     2    15 ar  
     5     2    20 ar  
     6     2    21 1   
     7     3     4 ar  
     8     3    13 ar  
     9     3    21 1   
    10     4     5 ar  
    11     4    26 1   
    12     5     6 ar  
    13     5    27 1   
    14     6     7 1   
    15     6    12 ar  
    16     7     8 1   
    17     7    11 1   
    18     7    28 1   
    19     8     9 1   
    20     8    29 1   
    21     8    39 1   
    22     9    25 1   
    23     9    30 1   
    24     9    40 1   
    25    10    11 1   
    26    10    25 1   
    27    10    31 1   
    28    10    32 1   
    29    11    33 1   
    30    11    34 1   
    31    12    13 ar  
    32    12    35 1   
    33    13    14 1   
    34    14    15 1   
    35    14    22 2   
    36    15    16 ar  
    37    16    17 ar  
    38    16    36 1   
    39    17    18 1   
    40    18    23 1   
    41    18    24 1   
    42    19    37 1   
    43    19    38 1   
    44    25    41 2   
    45    25    42 2   
@<TRIPOS>SUBSTRUCTURE
     1 F8S         1 TEMP              0 ****  ****    0 ROOT
