@<TRIPOS>MOLECULE
molecule
   42    45     1     0     0
SMALL
bcc


@<TRIPOS>ATOM
      1 C02          0.0000     0.0000     0.0000 ca         1 F8S       0.751200
      2 C04         -0.0890    -0.0120     2.3170 ca         1 F8S       0.670600
      3 C06         -0.3260     0.2780     4.6440 ca         1 F8S       0.194100
      4 C07         -1.1770     0.5720     5.7050 ca         1 F8S      -0.165000
      5 C08         -0.6580     0.8750     6.9460 ca         1 F8S      -0.080000
      6 C09          0.7130     0.8930     7.1560 ca         1 F8S      -0.143300
      7 C10          1.2600     1.2250     8.5210 c3         1 F8S      -0.031400
      8 C11          0.8250     2.6360     8.9070 c3         1 F8S      -0.059400
      9 C12          1.5740     3.0860    10.1640 c3         1 F8S      -0.198600
     10 C16          1.4780     0.3670    10.8620 c3         1 F8S      -0.198600
     11 C17          0.7410     0.2060     9.5310 c3         1 F8S      -0.059400
     12 C18          1.5750     0.6080     6.1200 ca         1 F8S      -0.035000
     13 C19          1.0600     0.3050     4.8610 ca         1 F8S      -0.231600
     14 C20          1.9560     0.0100     3.7210 c          1 F8S       0.601300
     15 C22          1.3170    -0.0030     2.3890 ca         1 F8S      -0.384900
     16 C23          2.0820     0.0000     1.2260 ca         1 F8S       0.020000
     17 C24          1.4100     0.0000     0.0000 ca         1 F8S      -0.259900
     18 C25          2.1600     0.0010    -1.2660 c          1 F8S       0.887200
     19 N01         -0.6770     0.0010    -1.2010 nv         1 F8S      -1.032500
     20 N03         -0.6860    -0.0060     1.1310 nb         1 F8S      -0.783000
     21 O05         -0.8370    -0.0300     3.4360 os         1 F8S      -0.339400
     22 O21          3.1440    -0.2080     3.8700 o          1 F8S      -0.542100
     23 O26          3.5020    -0.1200    -1.2540 o          1 F8S      -0.826800
     24 O27          1.5680     0.1100    -2.3230 o          1 F8S      -0.826800
     25 S13          1.1090     2.0080    11.5500 s6         1 F8S       1.096000
     26 H1          -2.2500     0.5570     5.5580 ha         1 F8S       0.147000
     27 H2          -1.3290     1.0980     7.7670 ha         1 F8S       0.132000
     28 H3           2.3420     1.1810     8.4970 hc         1 F8S       0.060700
     29 H4          -0.2400     2.6410     9.1030 hc         1 F8S       0.066700
     30 H5           1.3060     4.1100    10.3960 h1         1 F8S       0.100450
     31 H6           1.1460    -0.3980    11.5540 h1         1 F8S       0.100450
     32 H7           2.5450     0.2760    10.6970 h1         1 F8S       0.100450
     33 H8          -0.3190     0.3660     9.6880 hc         1 F8S       0.066700
     34 H9           0.9060    -0.7940     9.1490 hc         1 F8S       0.066700
     35 H10          2.6420     0.7380     6.2520 ha         1 F8S       0.151000
     36 H11          3.1650    -0.0000     1.2690 ha         1 F8S       0.187000
     37 H12         -1.2050     0.8050    -1.4760 hn         1 F8S       0.437800
     38 H13         -0.6920    -0.8250    -1.7660 hn         1 F8S       0.437800
     39 H15          1.0500     3.3150     8.0930 hc         1 F8S       0.066700
     40 H16          2.6420     3.0160     9.9930 h1         1 F8S       0.100450
     41 O14         -0.2940     2.1090    11.7540 o          1 F8S      -0.622800
     42 O15          1.9920     2.2550    12.6350 o          1 F8S      -0.622800
@<TRIPOS>BOND
     1    24    18 1
     2    19     1 1
     3    18    23 1
     4    18    17 1
     5     1    17 ar
     6     1    20 ar
     7    17    16 ar
     8    20     2 ar
     9    16    15 ar
    10     2    15 ar
    11     2    21 1
    12    15    14 1
    13    21     3 1
    14    14    22 2
    15    14    13 1
    16     3    13 ar
    17     3     4 ar
    18    13    12 ar
    19     4     5 ar
    20     5     6 ar
    21    12     6 ar
    22     6     7 1
    23     7    11 1
    24     7     8 1
    25    11    10 1
    26     8     9 1
    27    10    25 1
    28     9    25 1
    29    42    25 2
    30    25    41 2
    31     4    26 1
    32     5    27 1
    33     7    28 1
    34     8    29 1
    35     9    30 1
    36    10    31 1
    37    10    32 1
    38    11    33 1
    39    11    34 1
    40    12    35 1
    41    16    36 1
    42    19    37 1
    43    19    38 1
    44     8    39 1
    45     9    40 1
@<TRIPOS>SUBSTRUCTURE
     1 F8S         1 TEMP              0 ****  ****    0 ROOT
