@<TRIPOS>MOLECULE
molecule
   50    52     1     0     0
SMALL
bcc


@<TRIPOS>ATOM
      1 C1           0.0000     0.0000     0.0000 ca         1 F8T      -0.156000
      2 C2           1.3810     0.0000     0.0000 ca         1 F8T      -0.083000
      3 C3           2.0760     0.0000     1.1940 ca         1 F8T      -0.210000
      4 C4           1.3900    -0.0010     2.4010 ca         1 F8T       0.147100
      5 C5           0.0050    -0.0000     2.4110 ca         1 F8T      -0.152000
      6 C6          -0.6960    -0.0000     1.2080 cp         1 F8T      -0.013000
      7 C7          -2.1790     0.0070     1.2100 cp         1 F8T      -0.035000
      8 C8          -2.8800     0.0110     0.0050 ca         1 F8T      -0.091500
      9 C9          -4.2590     0.0180     0.0110 ca         1 F8T      -0.162000
     10 C10         -4.9500     0.0180     1.2170 ca         1 F8T       0.131600
     11 C11         -4.2540     0.0140     2.4200 ca         1 F8T      -0.162000
     12 C12         -2.8750     0.0010     2.4190 ca         1 F8T      -0.091500
     13 O13          2.0770    -0.0010     3.5740 os         1 F8T      -0.329900
     14 C14          3.5040    -0.0010     3.4890 c3         1 F8T       0.127700
     15 N15         -6.3460     0.0250     1.2200 nu         1 F8T      -0.661000
     16 C16         -7.0450    -0.6210     2.2420 ca         1 F8T       0.235600
     17 C17         -8.3330    -0.2140     2.5700 ca         1 F8T      -0.185500
     18 C18         -9.0220    -0.8540     3.5810 ca         1 F8T      -0.064500
     19 C19         -8.4300    -1.8990     4.2680 ca         1 F8T      -0.248300
     20 C20         -7.1490    -2.3060     3.9460 ca         1 F8T      -0.064500
     21 C21         -6.4570    -1.6740     2.9320 ca         1 F8T      -0.185500
     22 C22         -9.1850    -2.5950     5.3720 c3         1 F8T       0.171100
     23 N23         -9.9460    -3.7190     4.8110 nx         1 F8T      -0.655400
     24 C24         -9.0170    -4.7250     4.2810 c3         1 F8T       0.089600
     25 C25        -10.7750    -4.3240     5.8630 c3         1 F8T       0.089600
     26 H1          -0.5420     0.0000    -0.9380 ha         1 F8T       0.132000
     27 H2           1.9210     0.0000    -0.9390 ha         1 F8T       0.138000
     28 H3           3.1590    -0.0000     1.1890 ha         1 F8T       0.142000
     29 H4          -0.5310    -0.0010     3.3530 ha         1 F8T       0.142000
     30 H5          -2.3420     0.0110    -0.9350 ha         1 F8T       0.148000
     31 H6          -4.8040     0.0210    -0.9260 ha         1 F8T       0.137500
     32 H7          -4.7940     0.0120     3.3590 ha         1 F8T       0.137500
     33 H8          -2.3320    -0.0020     3.3560 ha         1 F8T       0.148000
     34 H9           3.8350    -0.8850     2.9580 h1         1 F8T       0.045367
     35 H10          3.9250    -0.0020     4.4870 h1         1 F8T       0.045367
     36 H11          3.8350     0.8840     2.9580 h1         1 F8T       0.045367
     37 H12         -6.8460     0.5200     0.5070 hn         1 F8T       0.461800
     38 H13         -8.7960     0.6040     2.0320 ha         1 F8T       0.163000
     39 H14        -10.0260    -0.5380     3.8360 ha         1 F8T       0.132000
     40 H15         -6.6900    -3.1250     4.4850 ha         1 F8T       0.132000
     41 H16         -5.4530    -1.9930     2.6800 ha         1 F8T       0.163000
     42 H17         -8.4840    -2.9670     6.1100 hx         1 F8T       0.101200
     43 H18         -9.8660    -1.8960     5.8410 hx         1 F8T       0.101200
     44 H19        -10.5350    -3.3870     4.0720 hn         1 F8T       0.451800
     45 H20         -8.7500    -4.4690     3.2620 hx         1 F8T       0.098867
     46 H21         -9.4910    -5.6990     4.2960 hx         1 F8T       0.098867
     47 H22         -8.1230    -4.7490     4.8930 hx         1 F8T       0.098867
     48 H23        -11.4700    -3.5860     6.2440 hx         1 F8T       0.098867
     49 H24        -11.3260    -5.1610     5.4520 hx         1 F8T       0.098867
     50 H25        -10.1390    -4.6710     6.6690 hx         1 F8T       0.098867
@<TRIPOS>BOND
     1     3     2 ar
     2     3     4 ar
     3    13    14 1
     4    13     4 1
     5     2     1 ar
     6     4     5 ar
     7     1     6 ar
     8     5     6 ar
     9     6     7 1
    10    12     7 ar
    11    12    11 ar
    12     7     8 ar
    13    11    10 ar
    14     8     9 ar
    15    10     9 ar
    16    10    15 1
    17    21    20 ar
    18    21    16 ar
    19    20    19 ar
    20    16    15 1
    21    16    17 ar
    22    22    19 1
    23    22    23 1
    24    19    18 ar
    25    17    18 ar
    26    25    23 1
    27    23    24 1
    28     1    26 1
    29     2    27 1
    30     3    28 1
    31     5    29 1
    32     8    30 1
    33     9    31 1
    34    11    32 1
    35    12    33 1
    36    14    34 1
    37    14    35 1
    38    14    36 1
    39    15    37 1
    40    17    38 1
    41    18    39 1
    42    20    40 1
    43    21    41 1
    44    22    42 1
    45    22    43 1
    46    23    44 1
    47    24    45 1
    48    24    46 1
    49    24    47 1
    50    25    48 1
    51    25    49 1
    52    25    50 1
@<TRIPOS>SUBSTRUCTURE
     1 F8T         1 TEMP              0 ****  ****    0 ROOT
