@<TRIPOS>MOLECULE
molecule
   82    88     1     0     0
SMALL
bcc


@<TRIPOS>ATOM
      1 O1           0.0000     0.0000     0.0000 o          1 F8V      -0.582100
      2 C20          1.2130     0.0000     0.0000 c          1 F8V       0.663100
      3 N4           1.8870     0.0000     1.1680 n          1 F8V      -0.501800
      4 C24          3.3580     0.0080     1.1900 c3         1 F8V       0.105500
      5 C23          3.8240     1.1390     2.1120 c3         1 F8V       0.146300
      6 N5           3.1830     0.9920     3.4250 nh         1 F8V      -0.596000
      7 C25          3.7050     1.9040     4.3410 ca         1 F8V       0.122600
      8 C30          4.6980     2.7950     3.9450 ca         1 F8V      -0.185500
      9 C29          5.2150     3.6980     4.8470 ca         1 F8V      -0.056500
     10 C28          4.7420     3.7190     6.1600 cp         1 F8V      -0.175500
     11 C31          5.2960     4.6900     7.1330 cp         1 F8V       0.750500
     12 N7           6.2380     5.5360     6.7380 nb         1 F8V      -0.737500
     13 C34          6.7530     6.4150     7.5810 ca         1 F8V       0.463700
     14 C33          6.2970     6.4440     8.8900 ca         1 F8V      -0.394600
     15 C32          5.3120     5.5450     9.2700 ca         1 F8V       0.463700
     16 N6           4.8350     4.6960     8.3770 nb         1 F8V      -0.737500
     17 C27          3.7460     2.8250     6.5550 ca         1 F8V      -0.056500
     18 C26          3.2290     1.9270     5.6480 ca         1 F8V      -0.185500
     19 C22          1.7240     1.1250     3.3250 c3         1 F8V       0.146300
     20 C21          1.1710    -0.0010     2.4520 c3         1 F8V       0.105500
     21 C19          1.9670    -0.0040    -1.3050 c3         1 F8V       0.077800
     22 N            1.0130    -0.0100    -2.4220 n3         1 F8V      -0.664600
     23 C1           0.3870    -1.3480    -2.5810 c3         1 F8V       0.145800
     24 C2          -0.1300    -1.3640    -4.0360 c3         1 F8V      -0.075400
     25 C3           0.7360    -0.3290    -4.7810 c3         1 F8V      -0.048900
     26 C            1.7050     0.2260    -3.7140 c3         1 F8V       0.168800
     27 S            1.6650    -1.1300    -6.1190 ss         1 F8V      -0.349200
     28 C18          0.3560    -1.8500    -7.1490 c3         1 F8V       0.005000
     29 C4          -0.1270     0.7770    -5.3320 c          1 F8V       0.673100
     30 O           -1.2800     0.8820    -4.9720 o          1 F8V      -0.579100
     31 N1           0.3830     1.6510    -6.2230 ns         1 F8V      -0.464100
     32 C5          -0.4600     2.5590    -6.8750 ca         1 F8V       0.019600
     33 C10         -0.1030     3.0660    -8.1090 ca         1 F8V      -0.108000
     34 C9          -0.9490     3.9710    -8.7520 ca         1 F8V      -0.220900
     35 C11         -0.8880     4.6880   -10.0300 cc         1 F8V       0.417500
     36 N2          -1.9730     5.4190   -10.1260 nd         1 F8V      -0.492100
     37 N3          -2.7690     5.2430    -8.9890 na         1 F8V      -0.050100
     38 C8          -2.1550     4.3580    -8.1390 ca         1 F8V      -0.033200
     39 C7          -2.4930     3.8330    -6.8930 ca         1 F8V      -0.142000
     40 C6          -1.6600     2.9450    -6.2770 ca         1 F8V      -0.100000
     41 C12          0.2010     4.6030   -11.0310 ca         1 F8V      -0.104900
     42 C17          1.5220     4.4410   -10.6160 ca         1 F8V      -0.082000
     43 C16          2.5330     4.3620   -11.5510 ca         1 F8V      -0.171500
     44 C15          2.2360     4.4420   -12.9030 ca         1 F8V       0.138900
     45 F            3.2300     4.3640   -13.8150 f          1 F8V      -0.140900
     46 C14          0.9250     4.6030   -13.3200 ca         1 F8V      -0.171500
     47 C13         -0.0920     4.6780   -12.3920 ca         1 F8V      -0.082000
     48 H28          3.7350     0.1760     0.1890 h1         1 F8V       0.063450
     49 H27          3.7200    -0.9410     1.5670 h1         1 F8V       0.063450
     50 H26          3.5470     2.0930     1.6800 h1         1 F8V       0.053700
     51 H25          4.9000     1.0870     2.2280 h1         1 F8V       0.053700
     52 H32          5.0650     2.7780     2.9260 ha         1 F8V       0.138500
     53 H31          5.9880     4.3910     4.5380 ha         1 F8V       0.155000
     54 H35          7.5220     7.1040     7.2520 h4         1 F8V       0.029600
     55 H34          6.7040     7.1520     9.6020 ha         1 F8V       0.145000
     56 H33          4.9330     5.5440    10.2840 h4         1 F8V       0.029600
     57 H30          3.3760     2.8410     7.5730 ha         1 F8V       0.155000
     58 H29          2.4560     1.2330     5.9540 ha         1 F8V       0.138500
     59 H24          1.4790     2.0810     2.8760 h1         1 F8V       0.053700
     60 H23          1.2870     1.0620     4.3140 h1         1 F8V       0.053700
     61 H22          1.3220    -0.9520     2.9500 h1         1 F8V       0.063450
     62 H21          0.1140     0.1600     2.2780 h1         1 F8V       0.063450
     63 H19          2.5910    -0.8880    -1.3590 h1         1 F8V       0.053200
     64 H20          2.5880     0.8810    -1.3660 h1         1 F8V       0.053200
     65 H4           1.1240    -2.1280    -2.4360 h1         1 F8V       0.058200
     66 H5          -0.4370    -1.4630    -1.8880 h1         1 F8V       0.058200
     67 H6           0.0040    -2.3480    -4.4700 hc         1 F8V       0.076200
     68 H7          -1.1730    -1.0720    -4.0660 hc         1 F8V       0.076200
     69 H2           2.6440    -0.3130    -3.7420 h1         1 F8V       0.055700
     70 H3           1.8650     1.2860    -3.8670 h1         1 F8V       0.055700
     71 H18         -0.5850    -1.3600    -6.9320 h1         1 F8V       0.068033
     72 H17          0.2700    -2.9090    -6.9350 h1         1 F8V       0.068033
     73 H16          0.6030    -1.7120    -8.1940 h1         1 F8V       0.068033
     74 H8           1.3700     1.6780    -6.3880 hn         1 F8V       0.335500
     75 H11          0.7560     2.6620    -8.6310 ha         1 F8V       0.137000
     76 H1          -3.6480     5.6920    -8.8230 hn         1 F8V       0.333700
     77 H10         -3.4210     4.1240    -6.4180 ha         1 F8V       0.137000
     78 H9          -1.9310     2.5390    -5.3100 ha         1 F8V       0.193000
     79 H15          1.7540     4.3790    -9.5590 ha         1 F8V       0.147500
     80 H14          3.5590     4.2360   -11.2290 ha         1 F8V       0.147000
     81 H13          0.6980     4.6630   -14.3780 ha         1 F8V       0.147000
     82 H12         -1.1170     4.8030   -12.7200 ha         1 F8V       0.147500
@<TRIPOS>BOND
     1    13    12 ar
     2    13    14 ar
     3    12    11 ar
     4     9     8 ar
     5     9    10 ar
     6     8     7 ar
     7     5     4 1
     8     5     6 1
     9     1     2 2
    10    37    38 1
    11    37    36 1
    12     4     3 1
    13    39    38 ar
    14    39    40 ar
    15    14    15 ar
    16    38    34 ar
    17    36    35 2
    18    11    10 1
    19    11    16 ar
    20    40    32 ar
    21    10    17 ar
    22    34    35 1
    23    34    33 ar
    24     2     3 1
    25     2    21 1
    26    35    41 1
    27     7     6 1
    28     7    18 ar
    29     3    20 1
    30    42    41 ar
    31    42    43 ar
    32     6    19 1
    33    32    33 ar
    34    32    31 1
    35    24    23 1
    36    24    25 1
    37    15    16 ar
    38    23    22 1
    39    41    47 ar
    40    43    44 ar
    41    31    29 1
    42    30    29 2
    43    22    21 1
    44    22    26 1
    45    17    18 ar
    46    29    25 1
    47    20    19 1
    48    25    26 1
    49    25    27 1
    50    47    46 ar
    51    44    46 ar
    52    44    45 1
    53    27    28 1
    54     4    48 1
    55     4    49 1
    56     5    50 1
    57     5    51 1
    58     8    52 1
    59     9    53 1
    60    13    54 1
    61    14    55 1
    62    15    56 1
    63    17    57 1
    64    18    58 1
    65    19    59 1
    66    19    60 1
    67    20    61 1
    68    20    62 1
    69    21    63 1
    70    21    64 1
    71    23    65 1
    72    23    66 1
    73    24    67 1
    74    24    68 1
    75    26    69 1
    76    26    70 1
    77    28    71 1
    78    28    72 1
    79    28    73 1
    80    31    74 1
    81    33    75 1
    82    37    76 1
    83    39    77 1
    84    40    78 1
    85    42    79 1
    86    43    80 1
    87    46    81 1
    88    47    82 1
@<TRIPOS>SUBSTRUCTURE
     1 F8V         1 TEMP              0 ****  ****    0 ROOT
