@<TRIPOS>MOLECULE
F8W
  100   101     1     0     0
SMALL
bcc


@<TRIPOS>ATOM
      1 CAD          0.0000     0.0000     0.0000 ca         1 F8W      -0.070000
      2 CAE          1.3820     0.0000     0.0000 ca         1 F8W       0.086600
      3 OAH          2.0610     0.0010    -1.1780 oh         1 F8W      -0.489100
      4 CAF          2.0780     0.0000     1.2070 ca         1 F8W       0.117100
      5 OAG          3.4370     0.0000     1.2050 oh         1 F8W      -0.490600
      6 CAA          1.3870    -0.0010     2.4120 ca         1 F8W      -0.141000
      7 CAB          0.0100    -0.0010     2.4180 ca         1 F8W      -0.081500
      8 CAC         -0.6950     0.0040     1.2120 ca         1 F8W      -0.150100
      9 CAI         -2.1710     0.0040     1.2180 c          1 F8W       0.594200
     10 OAK         -2.7830    -0.0010     0.1670 o          1 F8W      -0.653100
     11 NAJ         -2.8400     0.0080     2.3880 ns         1 F8W      -0.195900
     12 CAL         -4.3060     0.0080     2.3940 c3         1 F8W       0.050000
     13 CAM         -4.8100     0.0140     3.8390 c3         1 F8W      -0.044400
     14 CAN         -6.3400     0.0130     3.8450 c3         1 F8W       0.150800
     15 NAO         -6.8240     0.0190     5.2320 n7         1 F8W      -0.586200
     16 CAP         -8.2920     0.0180     5.2760 c3         1 F8W       0.142300
     17 CAQ         -8.7580     0.0240     6.7340 c3         1 F8W      -0.024400
     18 CAR        -10.2870     0.0240     6.7810 c3         1 F8W      -0.041400
     19 CAS        -10.7530     0.0290     8.2390 c3         1 F8W       0.059500
     20 NAT        -12.2170     0.0290     8.2840 ns         1 F8W      -0.249900
     21 CAU        -12.8550     0.0340     9.4710 c          1 F8W       0.566100
     22 OAX        -12.2160     0.0380    10.5020 o          1 F8W      -0.556100
     23 CAV        -14.3600     0.0330     9.5170 c3         1 F8W      -0.108400
     24 CAW        -14.8260     0.0390    10.9740 c3         1 F8W       0.090800
     25 CBW        -14.2020    -1.1220    11.7060 c          1 F8W       0.988600
     26 OBY        -14.4370    -2.3780    11.2950 o          1 F8W      -0.870300
     27 OBX        -13.4900    -0.9210    12.6620 o          1 F8W      -0.870300
     28 OAY        -14.4290     1.2630    11.5970 oh         1 F8W      -0.517800
     29 CAZ        -16.3500    -0.0870    11.0240 c3         1 F8W      -0.108400
     30 CBA        -16.8090    -0.0810    12.4590 c          1 F8W       0.566100
     31 OBD        -15.9960     0.0140    13.3550 o          1 F8W      -0.556100
     32 NBB        -18.1210    -0.1830    12.7480 ns         1 F8W      -0.249900
     33 CBC        -18.5660    -0.1770    14.1430 c3         1 F8W       0.059500
     34 CBE        -20.0900    -0.3030    14.1930 c3         1 F8W      -0.041400
     35 CBF        -20.5560    -0.2970    15.6500 c3         1 F8W      -0.024400
     36 CBG        -22.0800    -0.4240    15.6990 c3         1 F8W       0.142300
     37 NBH        -22.5270    -0.4180    17.0990 n7         1 F8W      -0.586200
     38 CBI        -23.9890    -0.5380    17.1850 c3         1 F8W       0.150800
     39 CBJ        -24.4150    -0.5280    18.6540 c3         1 F8W      -0.044400
     40 CBK        -25.9380    -0.6520    18.7440 c3         1 F8W       0.050000
     41 NBL        -26.3470    -0.6440    20.1510 ns         1 F8W      -0.195900
     42 CBM        -27.6500    -0.7430    20.4750 c          1 F8W       0.594200
     43 OBO        -28.4880    -0.8400    19.5990 o          1 F8W      -0.653100
     44 CBN        -28.0630    -0.7340    21.8920 ca         1 F8W      -0.150100
     45 CBT        -29.4140    -0.8430    22.2300 ca         1 F8W      -0.070000
     46 CBS        -29.7930    -0.8390    23.5580 ca         1 F8W       0.086600
     47 OBU        -31.1080    -0.9450    23.8900 oh         1 F8W      -0.489100
     48 CBR        -28.8290    -0.7270    24.5580 ca         1 F8W       0.117100
     49 OBV        -29.2040    -0.7250    25.8640 oh         1 F8W      -0.490600
     50 CBQ        -27.4850    -0.6200    24.2230 ca         1 F8W      -0.141000
     51 CBP        -27.1010    -0.6230    22.9000 ca         1 F8W      -0.081500
     52 H1          -0.5430     0.0040    -0.9370 ha         1 F8W       0.138500
     53 H2           1.9830    -0.8450    -1.5870 ho         1 F8W       0.406000
     54 H3           3.7510     0.8580     1.4400 ho         1 F8W       0.406000
     55 H4           1.9330    -0.0030     3.3480 ha         1 F8W       0.116000
     56 H5          -0.5270     0.0000     3.3590 ha         1 F8W       0.105500
     57 H6          -2.3370     0.0400     3.2530 hn         1 F8W       0.180500
     58 H7          -4.6690    -0.8790     1.8880 h1         1 F8W       0.027450
     59 H8          -4.6690     0.8900     1.8810 h1         1 F8W       0.027450
     60 H9          -4.4470     0.9010     4.3440 hc         1 F8W       0.021700
     61 H10         -4.4460    -0.8680     4.3520 hc         1 F8W       0.021700
     62 H11         -6.7040     0.8950     3.3310 h1         1 F8W       0.008200
     63 H12         -6.7020    -0.8740     3.3390 h1         1 F8W       0.008200
     64 H13         -6.4760     0.8300     5.7030 hn         1 F8W       0.252800
     65 H15         -8.6690     0.9010     4.7730 h1         1 F8W       0.005700
     66 H16         -8.6680    -0.8680     4.7800 h1         1 F8W       0.005700
     67 H17         -8.3810    -0.8580     7.2370 hc         1 F8W       0.023200
     68 H18         -8.3820     0.9110     7.2290 hc         1 F8W       0.023200
     69 H19        -10.6640     0.9060     6.2780 hc         1 F8W       0.011700
     70 H20        -10.6630    -0.8630     6.2850 hc         1 F8W       0.011700
     71 H21        -10.3760    -0.8530     8.7420 h1         1 F8W       0.023950
     72 H22        -10.3760     0.9160     8.7350 h1         1 F8W       0.023950
     73 H23        -12.7440     0.0300     7.4330 hn         1 F8W       0.160000
     74 H24        -14.7360    -0.8540     9.0210 hc         1 F8W       0.017200
     75 H25        -14.7380     0.9150     9.0140 hc         1 F8W       0.017200
     76 H27        -14.7920     1.9900    11.1190 ho         1 F8W       0.327000
     77 H28        -16.7990     0.7470    10.4980 hc         1 F8W       0.017200
     78 H29        -16.6520    -1.0150    10.5520 hc         1 F8W       0.017200
     79 H30        -18.7930    -0.2450    12.0090 hn         1 F8W       0.160000
     80 H31        -18.2650     0.7510    14.6150 h1         1 F8W       0.023950
     81 H32        -18.1180    -1.0110    14.6690 h1         1 F8W       0.023950
     82 H33        -20.3920    -1.2300    13.7210 hc         1 F8W       0.011700
     83 H34        -20.5390     0.5320    13.6670 hc         1 F8W       0.011700
     84 H35        -20.2560     0.6310    16.1220 hc         1 F8W       0.023200
     85 H36        -20.1070    -1.1310    16.1760 hc         1 F8W       0.023200
     86 H37        -22.5290     0.4100    15.1730 h1         1 F8W       0.005700
     87 H38        -22.3810    -1.3520    15.2280 h1         1 F8W       0.005700
     88 H39        -22.2360     0.4320    17.5390 hn         1 F8W       0.252800
     89 H41        -24.3030    -1.4660    16.7240 h1         1 F8W       0.008200
     90 H42        -24.4500     0.2960    16.6690 h1         1 F8W       0.008200
     91 H43        -23.9540    -1.3620    19.1700 hc         1 F8W       0.021700
     92 H44        -24.1010     0.4000    19.1160 hc         1 F8W       0.021700
     93 H45        -26.3990     0.1810    18.2290 h1         1 F8W       0.027450
     94 H46        -26.2520    -1.5810    18.2820 h1         1 F8W       0.027450
     95 H47        -25.6570    -0.5650    20.8720 hn         1 F8W       0.180500
     96 H48        -30.1560    -0.9950    21.4550 ha         1 F8W       0.138500
     97 H49        -31.5520    -0.1410    23.6750 ho         1 F8W       0.406000
     98 H50        -28.9910    -1.5570    26.2530 ho         1 F8W       0.406000
     99 H51        -26.7390    -0.5330    25.0030 ha         1 F8W       0.116000
    100 H52        -26.0520    -0.5390    22.6410 ha         1 F8W       0.105500
@<TRIPOS>BOND
     1     1     2 ar  
     2     1     8 ar  
     3     1    52 1   
     4     2     3 1   
     5     2     4 ar  
     6     3    53 1   
     7     4     5 1   
     8     4     6 ar  
     9     5    54 1   
    10     6     7 ar  
    11     6    55 1   
    12     7     8 ar  
    13     7    56 1   
    14     8     9 1   
    15     9    10 2   
    16     9    11 1   
    17    11    12 1   
    18    11    57 1   
    19    12    13 1   
    20    12    58 1   
    21    12    59 1   
    22    13    14 1   
    23    13    60 1   
    24    13    61 1   
    25    14    15 1   
    26    14    62 1   
    27    14    63 1   
    28    15    16 1   
    29    15    64 1   
    30    16    17 1   
    31    16    65 1   
    32    16    66 1   
    33    17    18 1   
    34    17    67 1   
    35    17    68 1   
    36    18    19 1   
    37    18    69 1   
    38    18    70 1   
    39    19    20 1   
    40    19    71 1   
    41    19    72 1   
    42    20    21 1   
    43    20    73 1   
    44    21    22 2   
    45    21    23 1   
    46    23    24 1   
    47    23    74 1   
    48    23    75 1   
    49    24    25 1   
    50    24    28 1   
    51    24    29 1   
    52    25    26 1   
    53    25    27 1   
    54    28    76 1   
    55    29    30 1   
    56    29    77 1   
    57    29    78 1   
    58    30    31 2   
    59    30    32 1   
    60    32    33 1   
    61    32    79 1   
    62    33    34 1   
    63    33    80 1   
    64    33    81 1   
    65    34    35 1   
    66    34    82 1   
    67    34    83 1   
    68    35    36 1   
    69    35    84 1   
    70    35    85 1   
    71    36    37 1   
    72    36    86 1   
    73    36    87 1   
    74    37    38 1   
    75    37    88 1   
    76    38    39 1   
    77    38    89 1   
    78    38    90 1   
    79    39    40 1   
    80    39    91 1   
    81    39    92 1   
    82    40    41 1   
    83    40    93 1   
    84    40    94 1   
    85    41    42 1   
    86    41    95 1   
    87    42    43 2   
    88    42    44 1   
    89    44    45 ar  
    90    44    51 ar  
    91    45    46 ar  
    92    45    96 1   
    93    46    47 1   
    94    46    48 ar  
    95    47    97 1   
    96    48    49 1   
    97    48    50 ar  
    98    49    98 1   
    99    50    51 ar  
   100    50    99 1   
   101    51   100 1   
@<TRIPOS>SUBSTRUCTURE
     1 F8W         1 TEMP              0 ****  ****    0 ROOT
