@<TRIPOS>MOLECULE
molecule
  100   101     1     0     0
SMALL
bcc


@<TRIPOS>ATOM
      1 CAD          0.0000     0.0000     0.0000 ca         1 F8W      -0.095500
      2 CAE          1.3820     0.0000     0.0000 ca         1 F8W       0.079600
      3 OAH          2.0610     0.0010    -1.1780 oh         1 F8W      -0.508100
      4 CAF          2.0780     0.0000     1.2070 ca         1 F8W       0.109100
      5 OAG          3.4370     0.0000     1.2050 oh         1 F8W      -0.511100
      6 CAA          1.3870    -0.0010     2.4120 ca         1 F8W      -0.162000
      7 CAB          0.0100    -0.0010     2.4180 ca         1 F8W      -0.102000
      8 CAC         -0.6950     0.0040     1.2120 ca         1 F8W      -0.140600
      9 CAI         -2.1710     0.0040     1.2180 c          1 F8W       0.672700
     10 OAK         -2.7830    -0.0010     0.1670 o          1 F8W      -0.609600
     11 NAJ         -2.8400     0.0080     2.3880 ns         1 F8W      -0.580900
     12 CAL         -4.3060     0.0080     2.3940 c3         1 F8W       0.111000
     13 CAM         -4.8100     0.0140     3.8390 c3         1 F8W      -0.103400
     14 CAN         -6.3400     0.0130     3.8450 c3         1 F8W       0.161800
     15 NAO         -6.8240     0.0190     5.2320 n7         1 F8W      -0.819200
     16 CAP         -8.2920     0.0180     5.2760 c3         1 F8W       0.155800
     17 CAQ         -8.7580     0.0240     6.7340 c3         1 F8W      -0.079400
     18 CAR        -10.2870     0.0240     6.7810 c3         1 F8W      -0.101400
     19 CAS        -10.7530     0.0290     8.2390 c3         1 F8W       0.120000
     20 NAT        -12.2170     0.0290     8.2840 ns         1 F8W      -0.614400
     21 CAU        -12.8550     0.0340     9.4710 c          1 F8W       0.651600
     22 OAX        -12.2160     0.0380    10.5020 o          1 F8W      -0.526600
     23 CAV        -14.3600     0.0330     9.5170 c3         1 F8W      -0.162400
     24 CAW        -14.8260     0.0390    10.9740 c3         1 F8W       0.075800
     25 CBW        -14.2020    -1.1220    11.7060 c          1 F8W       0.914600
     26 OBY        -14.4370    -2.3780    11.2950 o          1 F8W      -0.816300
     27 OBX        -13.4900    -0.9210    12.6620 o          1 F8W      -0.816300
     28 OAY        -14.4290     1.2630    11.5970 oh         1 F8W      -0.539800
     29 CAZ        -16.3500    -0.0870    11.0240 c3         1 F8W      -0.162400
     30 CBA        -16.8090    -0.0810    12.4590 c          1 F8W       0.651600
     31 OBD        -15.9960     0.0140    13.3550 o          1 F8W      -0.526600
     32 NBB        -18.1210    -0.1830    12.7480 ns         1 F8W      -0.614400
     33 CBC        -18.5660    -0.1770    14.1430 c3         1 F8W       0.120000
     34 CBE        -20.0900    -0.3030    14.1930 c3         1 F8W      -0.101400
     35 CBF        -20.5560    -0.2970    15.6500 c3         1 F8W      -0.079400
     36 CBG        -22.0800    -0.4240    15.6990 c3         1 F8W       0.155800
     37 NBH        -22.5270    -0.4180    17.0990 n7         1 F8W      -0.819200
     38 CBI        -23.9890    -0.5380    17.1850 c3         1 F8W       0.161800
     39 CBJ        -24.4150    -0.5280    18.6540 c3         1 F8W      -0.103400
     40 CBK        -25.9380    -0.6520    18.7440 c3         1 F8W       0.111000
     41 NBL        -26.3470    -0.6440    20.1510 ns         1 F8W      -0.580900
     42 CBM        -27.6500    -0.7430    20.4750 c          1 F8W       0.672700
     43 OBO        -28.4880    -0.8400    19.5990 o          1 F8W      -0.609600
     44 CBN        -28.0630    -0.7340    21.8920 ca         1 F8W      -0.140600
     45 CBT        -29.4140    -0.8430    22.2300 ca         1 F8W      -0.095500
     46 CBS        -29.7930    -0.8390    23.5580 ca         1 F8W       0.079600
     47 OBU        -31.1080    -0.9450    23.8900 oh         1 F8W      -0.508100
     48 CBR        -28.8290    -0.7270    24.5580 ca         1 F8W       0.109100
     49 OBV        -29.2040    -0.7250    25.8640 oh         1 F8W      -0.511100
     50 CBQ        -27.4850    -0.6200    24.2230 ca         1 F8W      -0.162000
     51 CBP        -27.1010    -0.6230    22.9000 ca         1 F8W      -0.102000
     52 H1          -0.5430     0.0040    -0.9370 ha         1 F8W       0.169500
     53 H2           1.9830    -0.8450    -1.5870 ho         1 F8W       0.424000
     54 H3           3.7510     0.8580     1.4400 ho         1 F8W       0.425000
     55 H4           1.9330    -0.0030     3.3480 ha         1 F8W       0.145000
     56 H5          -0.5270     0.0000     3.3590 ha         1 F8W       0.132000
     57 H6          -2.3370     0.0400     3.2530 hn         1 F8W       0.315500
     58 H7          -4.6690    -0.8790     1.8880 h1         1 F8W       0.054700
     59 H8          -4.6690     0.8900     1.8810 h1         1 F8W       0.054700
     60 H9          -4.4470     0.9010     4.3440 hc         1 F8W       0.052200
     61 H10         -4.4460    -0.8680     4.3520 hc         1 F8W       0.052200
     62 H11         -6.7040     0.8950     3.3310 h1         1 F8W       0.034450
     63 H12         -6.7020    -0.8740     3.3390 h1         1 F8W       0.034450
     64 H13         -6.4760     0.8300     5.7030 hn         1 F8W       0.351800
     65 H15         -8.6690     0.9010     4.7730 h1         1 F8W       0.030950
     66 H16         -8.6680    -0.8680     4.7800 h1         1 F8W       0.030950
     67 H17         -8.3810    -0.8580     7.2370 hc         1 F8W       0.052450
     68 H18         -8.3820     0.9110     7.2290 hc         1 F8W       0.052450
     69 H19        -10.6640     0.9060     6.2780 hc         1 F8W       0.039200
     70 H20        -10.6630    -0.8630     6.2850 hc         1 F8W       0.039200
     71 H21        -10.3760    -0.8530     8.7420 h1         1 F8W       0.051200
     72 H22        -10.3760     0.9160     8.7350 h1         1 F8W       0.051200
     73 H23        -12.7440     0.0300     7.4330 hn         1 F8W       0.294000
     74 H24        -14.7360    -0.8540     9.0210 hc         1 F8W       0.044200
     75 H25        -14.7380     0.9150     9.0140 hc         1 F8W       0.044200
     76 H27        -14.7920     1.9900    11.1190 ho         1 F8W       0.342000
     77 H28        -16.7990     0.7470    10.4980 hc         1 F8W       0.044200
     78 H29        -16.6520    -1.0150    10.5520 hc         1 F8W       0.044200
     79 H30        -18.7930    -0.2450    12.0090 hn         1 F8W       0.294000
     80 H31        -18.2650     0.7510    14.6150 h1         1 F8W       0.051200
     81 H32        -18.1180    -1.0110    14.6690 h1         1 F8W       0.051200
     82 H33        -20.3920    -1.2300    13.7210 hc         1 F8W       0.039200
     83 H34        -20.5390     0.5320    13.6670 hc         1 F8W       0.039200
     84 H35        -20.2560     0.6310    16.1220 hc         1 F8W       0.052450
     85 H36        -20.1070    -1.1310    16.1760 hc         1 F8W       0.052450
     86 H37        -22.5290     0.4100    15.1730 h1         1 F8W       0.030950
     87 H38        -22.3810    -1.3520    15.2280 h1         1 F8W       0.030950
     88 H39        -22.2360     0.4320    17.5390 hn         1 F8W       0.351800
     89 H41        -24.3030    -1.4660    16.7240 h1         1 F8W       0.034450
     90 H42        -24.4500     0.2960    16.6690 h1         1 F8W       0.034450
     91 H43        -23.9540    -1.3620    19.1700 hc         1 F8W       0.052200
     92 H44        -24.1010     0.4000    19.1160 hc         1 F8W       0.052200
     93 H45        -26.3990     0.1810    18.2290 h1         1 F8W       0.054700
     94 H46        -26.2520    -1.5810    18.2820 h1         1 F8W       0.054700
     95 H47        -25.6570    -0.5650    20.8720 hn         1 F8W       0.315500
     96 H48        -30.1560    -0.9950    21.4550 ha         1 F8W       0.169500
     97 H49        -31.5520    -0.1410    23.6750 ho         1 F8W       0.424000
     98 H50        -28.9910    -1.5570    26.2530 ho         1 F8W       0.425000
     99 H51        -26.7390    -0.5330    25.0030 ha         1 F8W       0.145000
    100 H52        -26.0520    -0.5390    22.6410 ha         1 F8W       0.132000
@<TRIPOS>BOND
     1    13    14 1
     2    13    12 1
     3    14    15 1
     4    12    11 1
     5    15    16 1
     6    11     9 1
     7    16    17 1
     8    10     9 2
     9     9     8 1
    10    17    18 1
    11     8     1 ar
    12     8     7 ar
    13    18    19 1
    14     1     2 ar
    15     7     6 ar
    16    19    20 1
    17     2     3 1
    18     2     4 ar
    19     6     4 ar
    20     4     5 1
    21    20    21 1
    22    21    22 2
    23    21    23 1
    24    27    25 1
    25    47    46 1
    26    49    48 1
    27    46    48 ar
    28    46    45 ar
    29    25    24 1
    30    25    26 1
    31    23    24 1
    32    48    50 ar
    33    45    44 ar
    34    29    24 1
    35    29    30 1
    36    32    33 1
    37    32    30 1
    38    50    51 ar
    39    24    28 1
    40    44    51 ar
    41    44    42 1
    42    33    34 1
    43    30    31 2
    44    41    42 1
    45    41    40 1
    46    42    43 2
    47    40    39 1
    48    34    35 1
    49    35    36 1
    50    39    38 1
    51    38    37 1
    52    36    37 1
    53     1    52 1
    54     3    53 1
    55     5    54 1
    56     6    55 1
    57     7    56 1
    58    11    57 1
    59    12    58 1
    60    12    59 1
    61    13    60 1
    62    13    61 1
    63    14    62 1
    64    14    63 1
    65    15    64 1
    66    16    65 1
    67    16    66 1
    68    17    67 1
    69    17    68 1
    70    18    69 1
    71    18    70 1
    72    19    71 1
    73    19    72 1
    74    20    73 1
    75    23    74 1
    76    23    75 1
    77    28    76 1
    78    29    77 1
    79    29    78 1
    80    32    79 1
    81    33    80 1
    82    33    81 1
    83    34    82 1
    84    34    83 1
    85    35    84 1
    86    35    85 1
    87    36    86 1
    88    36    87 1
    89    37    88 1
    90    38    89 1
    91    38    90 1
    92    39    91 1
    93    39    92 1
    94    40    93 1
    95    40    94 1
    96    41    95 1
    97    45    96 1
    98    47    97 1
    99    49    98 1
   100    50    99 1
   101    51   100 1
@<TRIPOS>SUBSTRUCTURE
     1 F8W         1 TEMP              0 ****  ****    0 ROOT
