@<TRIPOS>MOLECULE
molecule
   44    46     1     0     0
SMALL
bcc


@<TRIPOS>ATOM
      1 C4           0.0000     0.0000     0.0000 ca         1 F8Y       0.155900
      2 C14          8.0350     0.0330    -0.0970 c3         1 F8Y       0.153800
      3 C5           1.3840     0.0000     0.0000 ca         1 F8Y      -0.196000
      4 C6           2.0780     0.0000     1.2030 ca         1 F8Y       0.212600
      5 C11          8.0630    -1.2250    -2.1640 c3         1 F8Y       0.104500
      6 C7           4.1720    -0.7090     0.2350 ca         1 F8Y       0.938900
      7 C8           6.1860    -1.2740    -0.7280 ca         1 F8Y       0.670200
      8 C9           5.4970    -2.0810    -1.6320 ca         1 F8Y      -0.258000
      9 C10          4.1200    -2.1610    -1.5440 ca         1 F8Y       0.482200
     10 C12          7.4750    -2.4100    -2.8870 c          1 F8Y       0.710500
     11 C13          7.6680     0.0600    -2.8930 c3         1 F8Y      -0.126100
     12 N1           3.4780     0.0010     1.2020 nu         1 F8Y      -0.756300
     13 N2           5.4930    -0.6060     0.1860 nb         1 F8Y      -0.816000
     14 C3          -0.6940    -0.0010     1.2030 ca         1 F8Y       0.005100
     15 N3           3.4980    -1.4630    -0.6000 nb         1 F8Y      -0.785000
     16 C1           1.3830    -0.0010     2.4050 ca         1 F8Y      -0.196000
     17 C2           0.0010    -0.0020     2.4050 ca         1 F8Y       0.155900
     18 F1          -0.6750     0.0060    -1.1700 f          1 F8Y      -0.123900
     19 O1          -2.0550    -0.0010     1.2030 oh         1 F8Y      -0.494100
     20 F2          -0.6750    -0.0020     3.5750 f          1 F8Y      -0.123900
     21 N4           7.5640    -1.1760    -0.7860 nh         1 F8Y      -0.681300
     22 N5           6.2080    -2.7920    -2.6100 n          1 F8Y      -0.361000
     23 O2           8.1320    -3.0130    -3.7090 o          1 F8Y      -0.611500
     24 C15          9.5520     0.1510    -0.2560 c3         1 F8Y      -0.100100
     25 C16          5.5940    -3.9210    -3.3130 c3         1 F8Y       0.188100
     26 C17          4.9130    -3.4340    -4.5240 c1         1 F8Y      -0.182100
     27 C18          4.3690    -3.0640    -5.4960 c1         1 F8Y      -0.117500
     28 H1           7.9250     0.8880    -0.7530 h1         1 F8Y       0.066700
     29 H2           7.4480     0.1880     0.8000 h1         1 F8Y       0.066700
     30 H3           1.9250     0.0010    -0.9380 ha         1 F8Y       0.164000
     31 H4           9.1420    -1.3170    -2.1480 h1         1 F8Y       0.113700
     32 H5           3.5670    -2.7830    -2.2370 h4         1 F8Y       0.046100
     33 H6           8.4320     0.8130    -2.7370 hc         1 F8Y       0.054700
     34 H7           6.7230     0.4200    -2.5050 hc         1 F8Y       0.054700
     35 H8           7.5710    -0.1410    -3.9530 hc         1 F8Y       0.054700
     36 H9           3.9780     0.4720     1.9300 hn         1 F8Y       0.470800
     37 H10          1.9240    -0.0010     3.3440 ha         1 F8Y       0.164000
     38 H11         -2.3690     0.8850     1.2710 ho         1 F8Y       0.419000
     39 H12          9.9840    -0.8380    -0.3460 hc         1 F8Y       0.043700
     40 H13          9.7780     0.7260    -1.1460 hc         1 F8Y       0.043700
     41 H14          9.9680     0.6500     0.6110 hc         1 F8Y       0.043700
     42 H15          6.3690    -4.5490    -3.7360 h1         1 F8Y       0.088200
     43 H16          5.0000    -4.5010    -2.6160 h1         1 F8Y       0.088200
     44 H17          3.8710    -2.7050    -6.3890 ha         1 F8Y       0.169500
@<TRIPOS>BOND
     1    27    26 3
     2    15     9 ar
     3    15     6 ar
     4    26    25 1
     5     9     8 ar
     6    12     6 1
     7    12     4 1
     8     3     4 ar
     9     3     1 ar
    10     6    13 ar
    11    25    22 1
    12     4    16 ar
    13    18     1 1
    14     1    14 ar
    15     8    22 1
    16     8     7 ar
    17    22    10 1
    18    13     7 ar
    19    16    17 ar
    20     7    21 1
    21    14    17 ar
    22    14    19 1
    23    17    20 1
    24    10    23 2
    25    10     5 1
    26    21     5 1
    27    21     2 1
    28     5    11 1
    29     2    24 1
    30     2    28 1
    31     2    29 1
    32     3    30 1
    33     5    31 1
    34     9    32 1
    35    11    33 1
    36    11    34 1
    37    11    35 1
    38    12    36 1
    39    16    37 1
    40    19    38 1
    41    24    39 1
    42    24    40 1
    43    24    41 1
    44    25    42 1
    45    25    43 1
    46    27    44 1
@<TRIPOS>SUBSTRUCTURE
     1 F8Y         1 TEMP              0 ****  ****    0 ROOT
