@<TRIPOS>MOLECULE
F8Y
   44    46     1     0     0
SMALL
bcc


@<TRIPOS>ATOM
      1 C4           0.0000     0.0000     0.0000 ca         1 F8Y       0.119400
      2 C14          8.0350     0.0330    -0.0970 c3         1 F8Y       0.102800
      3 C5           1.3840     0.0000     0.0000 ca         1 F8Y      -0.156000
      4 C6           2.0780     0.0000     1.2030 ca         1 F8Y       0.044600
      5 C11          8.0630    -1.2250    -2.1640 c3         1 F8Y       0.035500
      6 C7           4.1720    -0.7090     0.2350 ca         1 F8Y       0.707900
      7 C8           6.1860    -1.2740    -0.7280 ca         1 F8Y       0.545200
      8 C9           5.4970    -2.0810    -1.6320 ca         1 F8Y      -0.399000
      9 C10          4.1200    -2.1610    -1.5440 ca         1 F8Y       0.474200
     10 C12          7.4750    -2.4100    -2.8870 c          1 F8Y       0.618500
     11 C13          7.6680     0.0600    -2.8930 c3         1 F8Y      -0.034100
     12 N1           3.4780     0.0010     1.2020 nu         1 F8Y      -0.292300
     13 N2           5.4930    -0.6060     0.1860 nb         1 F8Y      -0.705000
     14 C3          -0.6940    -0.0010     1.2030 ca         1 F8Y       0.045100
     15 N3           3.4980    -1.4630    -0.6000 nb         1 F8Y      -0.684000
     16 C1           1.3830    -0.0010     2.4050 ca         1 F8Y      -0.156000
     17 C2           0.0010    -0.0020     2.4050 ca         1 F8Y       0.119400
     18 F1          -0.6750     0.0060    -1.1700 f          1 F8Y      -0.116900
     19 O1          -2.0550    -0.0010     1.2030 oh         1 F8Y      -0.472100
     20 F2          -0.6750    -0.0020     3.5750 f          1 F8Y      -0.116900
     21 N4           7.5640    -1.1760    -0.7860 nh         1 F8Y      -0.427300
     22 N5           6.2080    -2.7920    -2.6100 n          1 F8Y       0.035000
     23 O2           8.1320    -3.0130    -3.7090 o          1 F8Y      -0.650500
     24 C15          9.5520     0.1510    -0.2560 c3         1 F8Y      -0.005100
     25 C16          5.5940    -3.9210    -3.3130 c3         1 F8Y       0.160100
     26 C17          4.9130    -3.4340    -4.5240 c1         1 F8Y      -0.206100
     27 C18          4.3690    -3.0640    -5.4960 c1         1 F8Y      -0.079500
     28 H1           7.9250     0.8880    -0.7530 h1         1 F8Y       0.043200
     29 H2           7.4480     0.1880     0.8000 h1         1 F8Y       0.043200
     30 H3           1.9250     0.0010    -0.9380 ha         1 F8Y       0.139000
     31 H4           9.1420    -1.3170    -2.1480 h1         1 F8Y       0.081700
     32 H5           3.5670    -2.7830    -2.2370 h4         1 F8Y       0.002100
     33 H6           8.4320     0.8130    -2.7370 hc         1 F8Y       0.023033
     34 H7           6.7230     0.4200    -2.5050 hc         1 F8Y       0.023033
     35 H8           7.5710    -0.1410    -3.9530 hc         1 F8Y       0.023033
     36 H9           3.9780     0.4720     1.9300 hn         1 F8Y       0.296800
     37 H10          1.9240    -0.0010     3.3440 ha         1 F8Y       0.139000
     38 H11         -2.3690     0.8850     1.2710 ho         1 F8Y       0.404000
     39 H12          9.9840    -0.8380    -0.3460 hc         1 F8Y       0.011033
     40 H13          9.7780     0.7260    -1.1460 hc         1 F8Y       0.011033
     41 H14          9.9680     0.6500     0.6110 hc         1 F8Y       0.011033
     42 H15          6.3690    -4.5490    -3.7360 h1         1 F8Y       0.050200
     43 H16          5.0000    -4.5010    -2.6160 h1         1 F8Y       0.050200
     44 H17          3.8710    -2.7050    -6.3890 ha         1 F8Y       0.141500
@<TRIPOS>BOND
     1     1     3 ar  
     2     1    14 ar  
     3     1    18 1   
     4     2    21 1   
     5     2    24 1   
     6     2    28 1   
     7     2    29 1   
     8     3     4 ar  
     9     3    30 1   
    10     4    12 1   
    11     4    16 ar  
    12     5    10 1   
    13     5    11 1   
    14     5    21 1   
    15     5    31 1   
    16     6    12 1   
    17     6    13 ar  
    18     6    15 ar  
    19     7     8 ar  
    20     7    13 ar  
    21     7    21 1   
    22     8     9 ar  
    23     8    22 1   
    24     9    15 ar  
    25     9    32 1   
    26    10    22 1   
    27    10    23 2   
    28    11    33 1   
    29    11    34 1   
    30    11    35 1   
    31    12    36 1   
    32    14    17 ar  
    33    14    19 1   
    34    16    17 ar  
    35    16    37 1   
    36    17    20 1   
    37    19    38 1   
    38    22    25 1   
    39    24    39 1   
    40    24    40 1   
    41    24    41 1   
    42    25    26 1   
    43    25    42 1   
    44    25    43 1   
    45    26    27 3   
    46    27    44 1   
@<TRIPOS>SUBSTRUCTURE
     1 F8Y         1 TEMP              0 ****  ****    0 ROOT
