@<TRIPOS>MOLECULE
molecule
   22    22     1     0     0
SMALL
bcc


@<TRIPOS>ATOM
      1 C1           0.0000     0.0000     0.0000 ca         1 F90      -0.129300
      2 C2          -0.7530     0.0060    -1.3060 c3         1 F90       0.076000
      3 S3          -1.0460     1.7160    -1.8250 ss         1 F90      -0.114300
      4 C4          -1.9160     1.4340    -3.3310 c2         1 F90       0.461100
      5 N5          -2.1500     0.2130    -3.7300 n2         1 F90      -0.716100
      6 N6          -2.3480     2.4990    -4.0860 nz         1 F90      -0.786600
      7 C7           1.3830     0.0000     0.0000 ca         1 F90      -0.092000
      8 C8           2.0730     0.0000     1.1970 ca         1 F90      -0.117000
      9 C9           1.3810     0.0010     2.3950 ca         1 F90       0.056400
     10 Cl10         2.2480     0.0010     3.8990 cl         1 F90      -0.066400
     11 C11         -0.0030     0.0010     2.3940 ca         1 F90      -0.117000
     12 C12         -0.6920     0.0010     1.1960 ca         1 F90      -0.092000
     13 H2          -0.1700    -0.5060    -2.0610 h1         1 F90       0.097700
     14 H2A         -1.7020    -0.5000    -1.1770 h1         1 F90       0.097700
     15 HN5         -2.6440     0.0510    -4.5850 hn         1 F90       0.434400
     16 HN6         -3.3440     2.4610    -4.1770 hn         1 F90       0.467133
     17 HN6A        -2.0860     3.3540    -3.6370 hn         1 F90       0.467133
     18 H7           1.9240    -0.0010    -0.9380 ha         1 F90       0.142000
     19 H8           3.1560     0.0000     1.1970 ha         1 F90       0.161000
     20 H11         -0.5450     0.0020     3.3310 ha         1 F90       0.161000
     21 H12         -1.7760     0.0010     1.1950 ha         1 F90       0.142000
     22 H63         -1.8970     2.4800    -4.9790 hn         1 F90       0.467133
@<TRIPOS>BOND
     1     7     1 ar
     2     2     1 1
     3     1    12 ar
     4     2     3 1
     5     2    13 1
     6     2    14 1
     7     4     3 1
     8     5     4 2
     9     4     6 1
    10     5    15 1
    11     6    16 1
    12     6    17 1
    13     7     8 ar
    14     7    18 1
    15     8     9 ar
    16     8    19 1
    17     9    10 1
    18     9    11 ar
    19    12    11 ar
    20    11    20 1
    21    12    21 1
    22    22     6 1
@<TRIPOS>SUBSTRUCTURE
     1 F90         1 TEMP              0 ****  ****    0 ROOT
