@<TRIPOS>MOLECULE
F90
   22    22     1     0     0
SMALL
bcc


@<TRIPOS>ATOM
      1 C1           0.0000     0.0000     0.0000 ca         1 F90      -0.142300
      2 C2          -0.7530     0.0060    -1.3060 c3         1 F90       0.172000
      3 S3          -1.0460     1.7160    -1.8250 ss         1 F90      -0.241300
      4 C4          -1.9160     1.4340    -3.3310 c2         1 F90       0.149100
      5 N5          -2.1500     0.2130    -3.7300 n2         1 F90      -0.508100
      6 N6          -2.3480     2.4990    -4.0860 nz         1 F90       0.215400
      7 C7           1.3830     0.0000     0.0000 ca         1 F90      -0.058000
      8 C8           2.0730     0.0000     1.1970 ca         1 F90      -0.089000
      9 C9           1.3810     0.0010     2.3950 ca         1 F90      -0.013600
     10 Cl10         2.2480     0.0010     3.8990 cl         1 F90       0.031600
     11 C11         -0.0030     0.0010     2.3940 ca         1 F90      -0.089000
     12 C12         -0.6920     0.0010     1.1960 ca         1 F90      -0.058000
     13 H2          -1.7020    -0.5000    -1.1770 h1         1 F90       0.050700
     14 H2A         -0.1700    -0.5060    -2.0610 h1         1 F90       0.050700
     15 HN5         -1.8360    -0.5630    -3.1810 hn         1 F90       0.382400
     16 HN6         -2.0870     3.3540    -3.6370 hn         1 F90       0.221133
     17 HN6A        -3.3440     2.4610    -4.1780 hn         1 F90       0.221133
     18 H7           1.9240    -0.0010    -0.9380 ha         1 F90       0.111000
     19 H8           3.1560     0.0000     1.1970 ha         1 F90       0.129500
     20 H11         -0.5450     0.0020     3.3310 ha         1 F90       0.129500
     21 H12         -1.7760     0.0010     1.1950 ha         1 F90       0.111000
     22 H63         -1.8960     2.4800    -4.9790 hn         1 F90       0.221133
@<TRIPOS>BOND
     1     1     2 1   
     2     1     7 ar  
     3     1    12 ar  
     4     2     3 1   
     5     2    13 1   
     6     2    14 1   
     7     3     4 1   
     8     4     5 2   
     9     4     6 1   
    10     5    15 1   
    11     6    16 1   
    12     6    17 1   
    13     6    22 1   
    14     7     8 ar  
    15     7    18 1   
    16     8     9 ar  
    17     8    19 1   
    18     9    10 1   
    19     9    11 ar  
    20    11    12 ar  
    21    11    20 1   
    22    12    21 1   
@<TRIPOS>SUBSTRUCTURE
     1 F90         1 TEMP              0 ****  ****    0 ROOT
