@<TRIPOS>MOLECULE
molecule
   32    34     1     0     0
SMALL
bcc


@<TRIPOS>ATOM
      1 C1           0.0000     0.0000     0.0000 ca         1 F91       0.111100
      2 O2           1.3610     0.0000     0.0000 os         1 F91      -0.322900
      3 C3           2.0040     0.0000     1.2790 c3         1 F91       0.098400
      4 C4           1.3190    -1.0520     2.1620 c3         1 F91       0.101400
      5 O5          -0.0630    -0.7000     2.2870 os         1 F91      -0.325900
      6 C6          -0.7120    -0.3550     1.1400 ca         1 F91       0.007100
      7 C7          -2.0990    -0.3540     1.1190 ca         1 F91      -0.076000
      8 C8          -2.7750    -0.0050    -0.0350 ca         1 F91      -0.212000
      9 C9          -2.0670     0.3460    -1.1760 ca         1 F91       0.204600
     10 N10         -2.7520     0.7010    -2.3430 nu         1 F91      -0.828600
     11 C11         -4.2170     0.7020    -2.3610 c3         1 F91       0.287100
     12 C12         -4.7020     1.1190    -3.7260 ca         1 F91      -0.078300
     13 C13         -0.6790     0.3550    -1.1560 ca         1 F91      -0.205000
     14 C14         -4.9290     2.4540    -4.0220 ca         1 F91      -0.239300
     15 C15         -5.3740     2.7980    -5.2840 ca         1 F91       0.417700
     16 N16         -5.5830     1.8730    -6.2010 nb         1 F91      -0.685000
     17 C17         -5.3780     0.5940    -5.9550 ca         1 F91       0.417700
     18 C18         -4.9270     0.1760    -4.7170 ca         1 F91      -0.239300
     19 H3           1.9070     0.9780     1.7350 h1         1 F91       0.066700
     20 H3A          3.0510    -0.2510     1.1590 h1         1 F91       0.066700
     21 H4           1.7770    -1.0410     3.1440 h1         1 F91       0.067200
     22 H4A          1.3950    -2.0200     1.6820 h1         1 F91       0.067200
     23 H7          -2.6540    -0.6280     2.0080 ha         1 F91       0.144000
     24 H8          -3.8580    -0.0070    -0.0490 ha         1 F91       0.135000
     25 HN10        -2.2410     0.9480    -3.1680 hn         1 F91       0.443800
     26 H11         -4.5860     1.3980    -1.6180 h1         1 F91       0.047700
     27 H11A        -4.5810    -0.2930    -2.1370 h1         1 F91       0.047700
     28 H13         -0.1260     0.6290    -2.0470 ha         1 F91       0.144000
     29 H14         -4.7590     3.2190    -3.2730 ha         1 F91       0.144000
     30 H15         -5.5540     3.8390    -5.5230 h4         1 F91       0.026100
     31 H17         -5.5590    -0.1370    -6.7340 h4         1 F91       0.026100
     32 H18         -4.7600    -0.8760    -4.5210 ha         1 F91       0.144000
@<TRIPOS>BOND
     1     2     1 1
     2     6     1 ar
     3     1    13 ar
     4     3     2 1
     5     3     4 1
     6     3    19 1
     7     3    20 1
     8     4     5 1
     9     4    21 1
    10     4    22 1
    11     5     6 1
    12     6     7 ar
    13     7     8 ar
    14     7    23 1
    15     8     9 ar
    16     8    24 1
    17    13     9 ar
    18     9    10 1
    19    10    11 1
    20    10    25 1
    21    12    11 1
    22    11    26 1
    23    11    27 1
    24    14    12 ar
    25    12    18 ar
    26    13    28 1
    27    15    14 ar
    28    14    29 1
    29    15    16 ar
    30    15    30 1
    31    16    17 ar
    32    17    18 ar
    33    17    31 1
    34    18    32 1
@<TRIPOS>SUBSTRUCTURE
     1 F91         1 TEMP              0 ****  ****    0 ROOT
