@<TRIPOS>MOLECULE
F92
   46    49     1     0     0
SMALL
bcc


@<TRIPOS>ATOM
      1 C4           0.0000     0.0000     0.0000 ca         1 F92       0.574800
      2 C5           1.4020     0.0000     0.0000 ca         1 F92      -0.451600
      3 C6           2.0590     0.0000     1.2150 ca         1 F92       0.503200
      4 N1           1.3530    -0.0010     2.3350 nb         1 F92      -0.705000
      5 N3          -0.6450    -0.0000     1.1680 nb         1 F92      -0.680000
      6 CAM          1.6340     1.0600    -3.6490 c3         1 F92      -0.032900
      7 CAK          2.8230     2.0050    -3.8350 c3         1 F92      -0.040400
      8 CAX          2.3180     3.3790    -4.2790 c3         1 F92       0.189100
      9 OAB          3.4280     4.2620    -4.4530 oh         1 F92      -0.581800
     10 CAL          1.3780     3.9450    -3.2150 c3         1 F92      -0.040400
     11 CAN          0.1890     3.0010    -3.0290 c3         1 F92      -0.032900
     12 CAY          0.6940     1.6270    -2.5840 c3         1 F92      -0.097000
     13 NAZ         -0.4450     0.7220    -2.4070 na         1 F92       0.323100
     14 CAJ         -1.3860     0.4310    -3.3290 cc         1 F92       0.227400
     15 NAP         -2.2460    -0.4110    -2.8260 nd         1 F92      -0.609000
     16 CAV         -1.9030    -0.7030    -1.5590 cd         1 F92       0.399800
     17 CAT         -2.6220    -1.6190    -0.6430 ca         1 F92      -0.101500
     18 CAH         -4.0130    -1.7060    -0.6920 ca         1 F92      -0.056500
     19 CAF         -4.6780    -2.5600     0.1630 ca         1 F92      -0.139500
     20 CAR         -3.9670    -3.3310     1.0680 ca         1 F92       0.097900
     21 FAC         -4.6230    -4.1660     1.9030 f          1 F92      -0.132900
     22 CAG         -2.5850    -3.2470     1.1200 ca         1 F92      -0.139500
     23 CAI         -1.9100    -2.4010     0.2650 ca         1 F92      -0.056500
     24 CAW         -0.7490     0.0070    -1.2700 cc         1 F92      -0.481100
     25 C2           0.0270    -0.0000     2.3070 ca         1 F92       0.713900
     26 NAA         -0.6710    -0.0010     3.5020 nv         1 F92      -0.492500
     27 H1           1.9560     0.0000    -0.9310 ha         1 F92       0.130000
     28 H2           3.1420    -0.0000     1.2510 h4         1 F92      -0.018900
     29 H4           1.1000     0.9650    -4.5870 hc         1 F92       0.027200
     30 H5           3.4860     1.6040    -4.5920 hc         1 F92       0.028700
     31 H6           3.3550     2.1030    -2.8970 hc         1 F92       0.028700
     32 H7           1.7820     3.2790    -5.2150 h1         1 F92       0.000700
     33 H8           3.4530     4.5640    -5.3460 ho         1 F92       0.391000
     34 H9           1.0190     4.9170    -3.5330 hc         1 F92       0.028700
     35 H10          1.9120     4.0410    -2.2770 hc         1 F92       0.028700
     36 H11         -0.4750     3.4020    -2.2730 hc         1 F92       0.027200
     37 H12         -0.3430     2.9020    -3.9680 hc         1 F92       0.027200
     38 H13          1.2300     1.7270    -1.6480 h1         1 F92       0.072700
     39 H14         -1.4210     0.8350    -4.3330 h5         1 F92       0.025100
     40 H15         -4.5700    -1.1030    -1.3990 ha         1 F92       0.115500
     41 H16         -5.7580    -2.6280     0.1260 ha         1 F92       0.116000
     42 H17         -2.0330    -3.8540     1.8270 ha         1 F92       0.116000
     43 H18         -0.8290    -2.3370     0.3060 ha         1 F92       0.115500
     44 H19         -1.6630     0.1320     3.5020 hn         1 F92       0.277800
     45 H20         -0.1860    -0.1460     4.3650 hn         1 F92       0.277800
     46 H3           1.9930     0.0880    -3.3320 hc         1 F92       0.027200
@<TRIPOS>BOND
     1     1     2 ar  
     2     1     5 ar  
     3     1    24 1   
     4     2     3 ar  
     5     2    27 1   
     6     3     4 ar  
     7     3    28 1   
     8     4    25 ar  
     9     5    25 ar  
    10     6     7 1   
    11     6    12 1   
    12     6    29 1   
    13     6    46 1   
    14     7     8 1   
    15     7    30 1   
    16     7    31 1   
    17     8     9 1   
    18     8    10 1   
    19     8    32 1   
    20     9    33 1   
    21    10    11 1   
    22    10    34 1   
    23    10    35 1   
    24    11    12 1   
    25    11    36 1   
    26    11    37 1   
    27    12    13 1   
    28    12    38 1   
    29    13    14 1   
    30    13    24 1   
    31    14    15 2   
    32    14    39 1   
    33    15    16 1   
    34    16    17 1   
    35    16    24 2   
    36    17    18 ar  
    37    17    23 ar  
    38    18    19 ar  
    39    18    40 1   
    40    19    20 ar  
    41    19    41 1   
    42    20    21 1   
    43    20    22 ar  
    44    22    23 ar  
    45    22    42 1   
    46    23    43 1   
    47    25    26 1   
    48    26    44 1   
    49    26    45 1   
@<TRIPOS>SUBSTRUCTURE
     1 F92         1 TEMP              0 ****  ****    0 ROOT
