@<TRIPOS>MOLECULE
molecule
   46    49     1     0     0
SMALL
bcc


@<TRIPOS>ATOM
      1 C4           0.0000     0.0000     0.0000 ca         1 F92       0.593800
      2 C5           1.4020     0.0000     0.0000 ca         1 F92      -0.453600
      3 C6           2.0590     0.0000     1.2150 ca         1 F92       0.504200
      4 N1           1.3530    -0.0010     2.3350 nb         1 F92      -0.802000
      5 N3          -0.6450    -0.0000     1.1680 nb         1 F92      -0.783000
      6 CAM          1.6340     1.0600    -3.6490 c3         1 F92      -0.092900
      7 CAK          2.8230     2.0050    -3.8350 c3         1 F92      -0.090400
      8 CAX          2.3180     3.3790    -4.2790 c3         1 F92       0.145100
      9 OAB          3.4280     4.2620    -4.4530 oh         1 F92      -0.601800
     10 CAL          1.3780     3.9450    -3.2150 c3         1 F92      -0.090400
     11 CAN          0.1890     3.0010    -3.0290 c3         1 F92      -0.092900
     12 CAY          0.6940     1.6270    -2.5840 c3         1 F92       0.039000
     13 NAZ         -0.4450     0.7220    -2.4070 na         1 F92      -0.167900
     14 CAJ         -1.3860     0.4310    -3.3290 cc         1 F92       0.415400
     15 NAP         -2.2460    -0.4110    -2.8260 nd         1 F92      -0.693000
     16 CAV         -1.9030    -0.7030    -1.5590 cd         1 F92       0.422800
     17 CAT         -2.6220    -1.6190    -0.6430 ca         1 F92      -0.110500
     18 CAH         -4.0130    -1.7060    -0.6920 ca         1 F92      -0.073500
     19 CAF         -4.6780    -2.5600     0.1630 ca         1 F92      -0.175000
     20 CAR         -3.9670    -3.3310     1.0680 ca         1 F92       0.130900
     21 FAC         -4.6230    -4.1660     1.9030 f          1 F92      -0.145900
     22 CAG         -2.5850    -3.2470     1.1200 ca         1 F92      -0.175000
     23 CAI         -1.9100    -2.4010     0.2650 ca         1 F92      -0.073500
     24 CAW         -0.7490     0.0070    -1.2700 cc         1 F92      -0.297100
     25 C2           0.0270    -0.0000     2.3070 ca         1 F92       0.949900
     26 NAA         -0.6710    -0.0010     3.5020 nv         1 F92      -0.986500
     27 H1           1.9560     0.0000    -0.9310 ha         1 F92       0.145000
     28 H2           3.1420    -0.0000     1.2510 h4         1 F92       0.029100
     29 H4           1.1000     0.9650    -4.5870 hc         1 F92       0.056200
     30 H5           3.4860     1.6040    -4.5920 hc         1 F92       0.058950
     31 H6           3.3550     2.1030    -2.8970 hc         1 F92       0.058950
     32 H7           1.7820     3.2790    -5.2150 h1         1 F92       0.031700
     33 H8           3.4530     4.5640    -5.3460 ho         1 F92       0.404000
     34 H9           1.0190     4.9170    -3.5330 hc         1 F92       0.058950
     35 H10          1.9120     4.0410    -2.2770 hc         1 F92       0.058950
     36 H11         -0.4750     3.4020    -2.2730 hc         1 F92       0.056200
     37 H12         -0.3430     2.9020    -3.9680 hc         1 F92       0.056200
     38 H13          1.2300     1.7270    -1.6480 h1         1 F92       0.088700
     39 H14         -1.4210     0.8350    -4.3330 h5         1 F92       0.066100
     40 H15         -4.5700    -1.1030    -1.3990 ha         1 F92       0.144000
     41 H16         -5.7580    -2.6280     0.1260 ha         1 F92       0.142500
     42 H17         -2.0330    -3.8540     1.8270 ha         1 F92       0.142500
     43 H18         -0.8290    -2.3370     0.3060 ha         1 F92       0.144000
     44 H19         -1.6630     0.1320     3.5020 hn         1 F92       0.452800
     45 H20         -0.1860    -0.1460     4.3650 hn         1 F92       0.452800
     46 H3           1.9930     0.0880    -3.3320 hc         1 F92       0.056200
@<TRIPOS>BOND
     1     9     8 1
     2     8     7 1
     3     8    10 1
     4     6     7 1
     5     6    12 1
     6    14    15 2
     7    14    13 1
     8    15    16 1
     9    10    11 1
    10    11    12 1
    11    12    13 1
    12    13    24 1
    13    16    24 2
    14    16    17 1
    15    23    17 ar
    16    23    22 ar
    17    24     1 1
    18    17    18 ar
    19    22    20 ar
    20    18    19 ar
    21    20    21 1
    22    20    19 ar
    23     1     5 ar
    24     1     2 ar
    25     5    25 ar
    26     2     3 ar
    27    25    26 1
    28    25     4 ar
    29     3     4 ar
    30     2    27 1
    31     3    28 1
    32     6    46 1
    33     6    29 1
    34     7    30 1
    35     7    31 1
    36     8    32 1
    37     9    33 1
    38    10    34 1
    39    10    35 1
    40    11    36 1
    41    11    37 1
    42    12    38 1
    43    14    39 1
    44    18    40 1
    45    19    41 1
    46    22    42 1
    47    23    43 1
    48    26    44 1
    49    26    45 1
@<TRIPOS>SUBSTRUCTURE
     1 F92         1 TEMP              0 ****  ****    0 ROOT
