@<TRIPOS>MOLECULE
molecule
   29    31     1     0     0
SMALL
bcc


@<TRIPOS>ATOM
      1 CAK          0.0000     0.0000     0.0000 ca         1 F94      -0.120000
      2 CAL          1.3860     0.0000     0.0000 ca         1 F94       0.101100
      3 OAS          2.0650     0.0000    -1.1770 oh         1 F94      -0.517100
      4 CAM          2.0800     0.0000     1.2020 ca         1 F94      -0.131000
      5 CAI          1.3940     0.0000     2.4040 ca         1 F94      -0.118000
      6 CAJ          0.0150    -0.0010     2.4150 ca         1 F94      -0.104000
      7 CAH         -0.6930     0.0050     1.2100 ca         1 F94      -0.058800
      8 CAF         -2.1700     0.0060     1.2190 cc         1 F94       0.208900
      9 OAA         -2.8220     0.0010     0.0450 os         1 F94      -0.213200
     10 CAB         -4.1680     0.0010    -0.0310 ca         1 F94       0.172100
     11 CAN         -4.8120    -0.0050    -1.2600 ca         1 F94      -0.191000
     12 CAO         -6.1960    -0.0050    -1.3110 ca         1 F94       0.162100
     13 OAR         -6.8250    -0.0110    -2.5140 oh         1 F94      -0.518100
     14 CAP         -6.9490    -0.0010    -0.1380 ca         1 F94      -0.188000
     15 CAQ         -6.3290     0.0060     1.0790 ca         1 F94      -0.027000
     16 CAC         -4.9360     0.0070     1.1470 ca         1 F94      -0.239600
     17 CAD         -4.2320     0.0130     2.4430 c          1 F94       0.585900
     18 OAG         -4.8450     0.0190     3.4980 o          1 F94      -0.548100
     19 CAE         -2.8170     0.0060     2.4150 cd         1 F94      -0.337200
     20 H1          -0.5430     0.0050    -0.9370 ha         1 F94       0.157000
     21 H2           2.1830    -0.8880    -1.4720 ho         1 F94       0.422000
     22 H3           3.1630     0.0000     1.2000 ha         1 F94       0.146000
     23 H4           1.9410    -0.0020     3.3380 ha         1 F94       0.142000
     24 H5          -0.5190     0.0010     3.3570 ha         1 F94       0.146000
     25 H6          -4.2370     0.0770    -2.1740 ha         1 F94       0.158000
     26 H7          -6.9230    -0.9000    -2.8140 ho         1 F94       0.428000
     27 H8          -8.0300    -0.0010    -0.1920 ha         1 F94       0.149000
     28 H9          -6.9180     0.0100     1.9880 ha         1 F94       0.163000
     29 H10         -2.2560     0.1280     3.3340 ha         1 F94       0.170000
@<TRIPOS>BOND
     1    14    15 ar
     2    14    12 ar
     3    15    16 ar
     4    13    12 1
     5    12    11 ar
     6    18    17 2
     7    16    17 1
     8    16    10 ar
     9    17    19 1
    10    11    10 ar
    11    10     9 1
    12    19     8 2
    13     9     8 1
    14     8     7 1
    15     7     1 ar
    16     7     6 ar
    17     1     2 ar
    18     6     5 ar
    19     2     3 1
    20     2     4 ar
    21     5     4 ar
    22     1    20 1
    23     3    21 1
    24     4    22 1
    25     5    23 1
    26     6    24 1
    27    11    25 1
    28    13    26 1
    29    14    27 1
    30    15    28 1
    31    19    29 1
@<TRIPOS>SUBSTRUCTURE
     1 F94         1 TEMP              0 ****  ****    0 ROOT
