@<TRIPOS>MOLECULE
F94
   29    31     1     0     0
SMALL
bcc


@<TRIPOS>ATOM
      1 CAK        -0.0730   -0.4470    0.0540 ca        1 F94     -0.116000
      2 CAL         1.3290   -0.4000   -0.0080 ca        1 F94      0.119100
      3 OAS         1.8990   -0.8160   -1.1900 oh        1 F94     -0.493100
      4 CAM         2.0870    0.0480    1.0820 ca        1 F94     -0.194000
      5 CAI         1.4300    0.4550    2.2420 ca        1 F94     -0.096000
      6 CAJ         0.0410    0.4150    2.3220 ca        1 F94     -0.135000
      7 CAH        -0.7120   -0.0420    1.2290 ca        1 F94     -0.042800
      8 CAF        -2.1730   -0.1000    1.3300 cc        1 F94      0.191900
      9 OAA        -2.7710    0.0670    0.0870 os        1 F94     -0.220200
     10 CAB        -4.1550    0.0240    0.0430 ca        1 F94      0.178100
     11 CAN        -4.7090    0.1920   -1.2350 ca        1 F94     -0.194000
     12 CAO        -6.1030    0.1600   -1.3490 ca        1 F94      0.176100
     13 OAR        -6.6120    0.3280   -2.6130 oh        1 F94     -0.488100
     14 CAP        -6.9290   -0.0350   -0.2240 ca        1 F94     -0.247000
     15 CAQ        -6.3510   -0.1980    1.0250 ca        1 F94     -0.008000
     16 CAC        -4.9570   -0.1720    1.1800 ca        1 F94     -0.251600
     17 CAD        -4.3310   -0.3440    2.4970 c         1 F94      0.593900
     18 OAG        -4.9780   -0.5150    3.5400 o         1 F94     -0.549100
     19 CAE        -2.8690   -0.2980    2.4730 cd        1 F94     -0.311200
     20 H1         -0.6500   -0.7970   -0.8150 ha        1 F94      0.167000
     21 H2          2.8600   -0.7330   -1.1040 ho        1 F94      0.422000
     22 H3          3.1840    0.0800    1.0220 ha        1 F94      0.138000
     23 H4          2.0170    0.8130    3.1020 ha        1 F94      0.140000
     24 H5         -0.4670    0.7470    3.2410 ha        1 F94      0.145000
     25 H6         -4.0700    0.3450   -2.1150 ha        1 F94      0.173000
     26 H7         -7.5790    0.2860   -2.5560 ho        1 F94      0.427000
     27 H8         -8.0220   -0.0560   -0.3410 ha        1 F94      0.143000
     28 H9         -6.9760   -0.3510    1.9220 ha        1 F94      0.163000
     29 H10        -2.3540   -0.4420    3.4340 ha        1 F94      0.169000
@<TRIPOS>BOND
     1    1    2 ar  
     2    1    7 ar  
     3    1   20 1   
     4    2    3 1   
     5    2    4 ar  
     6    3   21 1   
     7    4    5 ar  
     8    4   22 1   
     9    5    6 ar  
    10    5   23 1   
    11    6    7 ar  
    12    6   24 1   
    13    7    8 1   
    14    8    9 1   
    15    8   19 2   
    16    9   10 1   
    17   10   11 ar  
    18   10   16 ar  
    19   11   12 ar  
    20   11   25 1   
    21   12   13 1   
    22   12   14 ar  
    23   13   26 1   
    24   14   15 ar  
    25   14   27 1   
    26   15   16 ar  
    27   15   28 1   
    28   16   17 1   
    29   17   18 2   
    30   17   19 1   
    31   19   29 1   
@<TRIPOS>SUBSTRUCTURE
     1 F94         1 TEMP              0 ****  ****    0 ROOT
