@<TRIPOS>MOLECULE
molecule
   24    25     1     0     0
SMALL
bcc


@<TRIPOS>ATOM
      1 C1           0.0000     0.0000     0.0000 ca         1 F95      -0.121800
      2 C2           1.4070     0.0000     0.0000 ca         1 F95       0.149100
      3 C3           2.0890     0.0000     1.2110 ca         1 F95       0.053100
      4 C4           1.3760     0.0020     2.4030 ca         1 F95       0.106100
      5 C5          -0.0160     0.0020     2.3930 ca         1 F95      -0.194000
      6 C6          -0.7010     0.0010     1.2120 ca         1 F95      -0.039000
      7 O1           3.4500    -0.0000     1.2290 oh         1 F95      -0.501100
      8 O2           2.0420     0.0020     3.5870 oh         1 F95      -0.523100
      9 O3           2.0790    -0.0020    -1.1710 os         1 F95      -0.311200
     10 C7           1.4340    -0.0030    -2.3490 c          1 F95       0.747800
     11 C8           0.0260    -0.0030    -2.4220 cc         1 F95      -0.311200
     12 C9          -0.7100    -0.0060    -1.2810 cd         1 F95       0.097600
     13 O4           2.0830     0.0010    -3.3800 o          1 F95      -0.620500
     14 C10         -2.2160    -0.0060    -1.3310 c3         1 F95      -0.168200
     15 C11         -2.7220    -1.4220    -1.2280 c          1 F95       0.892600
     16 O5          -4.0420    -1.6670    -1.2510 o          1 F95      -0.830800
     17 O6          -1.9400    -2.3370    -1.1250 o          1 F95      -0.830800
     18 H1          -0.5600     0.0040     3.3300 ha         1 F95       0.137000
     19 H2          -1.7820     0.0790     1.2130 ha         1 F95       0.163000
     20 H3           3.7640     0.8880     1.2600 ho         1 F95       0.413000
     21 H4           2.0040    -0.8590     3.9690 ho         1 F95       0.423000
     22 H5          -0.4670    -0.0040    -3.3860 ha         1 F95       0.169000
     23 H6          -2.5470     0.4280    -2.2680 hc         1 F95       0.050700
     24 H7          -2.6050     0.5780    -0.5060 hc         1 F95       0.050700
@<TRIPOS>BOND
     1    13    10 2
     2    10    11 1
     3    10     9 1
     4    11    12 2
     5    12    14 1
     6    12     1 1
     7    14    15 1
     8     9     2 1
     9     1     2 ar
    10     1     6 ar
    11     2     3 ar
    12     6     5 ar
    13     3     7 1
    14     3     4 ar
    15     5     4 ar
    16     4     8 1
    17    17    15 1
    18    15    16 1
    19     5    18 1
    20     6    19 1
    21     7    20 1
    22     8    21 1
    23    11    22 1
    24    14    23 1
    25    14    24 1
@<TRIPOS>SUBSTRUCTURE
     1 F95         1 TEMP              0 ****  ****    0 ROOT
