@<TRIPOS>MOLECULE
F95
   24    25     1     0     0
SMALL
bcc


@<TRIPOS>ATOM
      1 C1         -0.0760   -0.0410    0.0010 ca        1 F95     -0.139800
      2 C2          1.3250    0.0580    0.1040 ca        1 F95      0.112100
      3 C3          1.9580    0.0970    1.3620 ca        1 F95     -0.009900
      4 C4          1.1750    0.0150    2.5240 ca        1 F95      0.134100
      5 C5         -0.2220   -0.1150    2.4270 ca        1 F95     -0.176000
      6 C6         -0.8320   -0.1480    1.1830 ca        1 F95     -0.051000
      7 O1          3.3260    0.2210    1.5200 oh        1 F95     -0.528100
      8 O2          1.7260    0.0580    3.7840 oh        1 F95     -0.503100
      9 O3          2.1690    0.1090   -0.9850 os        1 F95     -0.366200
     10 C7          1.5990    0.0150   -2.2630 c         1 F95      0.742800
     11 C8          0.1660   -0.0400   -2.4030 cc        1 F95     -0.327200
     12 C9         -0.6700   -0.0490   -1.3260 cd        1 F95      0.136600
     13 O4          2.4910    0.0290   -3.1160 o         1 F95     -0.621500
     14 C10        -2.1350   -0.0160   -1.4890 c3        1 F95     -0.213200
     15 C11        -2.8290   -1.3740   -1.1540 c         1 F95      0.928600
     16 O5         -3.2920   -1.5000    0.0130 o         1 F95     -0.816800
     17 O6         -2.9210   -2.2210   -2.0760 o         1 F95     -0.816800
     18 H1         -0.8140   -0.2040    3.3480 ha        1 F95      0.150000
     19 H2         -1.9300   -0.3100    1.0990 ha        1 F95      0.217000
     20 H3          3.7280    0.0970    0.6460 ho        1 F95      0.443000
     21 H4          2.6900    0.0850    3.6830 ho        1 F95      0.430000
     22 H5         -0.2150   -0.0850   -3.4330 ha        1 F95      0.168000
     23 H6         -2.4010    0.2390   -2.5470 hc        1 F95      0.053700
     24 H7         -2.5710    0.7620   -0.8100 hc        1 F95      0.053700
@<TRIPOS>BOND
     1    1    2 ar  
     2    1    6 ar  
     3    1   12 1   
     4    2    3 ar  
     5    2    9 1   
     6    3    4 ar  
     7    3    7 1   
     8    4    5 ar  
     9    4    8 1   
    10    5    6 ar  
    11    5   18 1   
    12    6   19 1   
    13    7   20 1   
    14    8   21 1   
    15    9   10 1   
    16   10   11 1   
    17   10   13 2   
    18   11   12 2   
    19   11   22 1   
    20   12   14 1   
    21   14   15 1   
    22   14   23 1   
    23   14   24 1   
    24   15   16 1   
    25   15   17 1   
@<TRIPOS>SUBSTRUCTURE
     1 F95         1 TEMP              0 ****  ****    0 ROOT
