@<TRIPOS>MOLECULE
F97
   57    61     1     0     0
SMALL
bcc


@<TRIPOS>ATOM
      1 C5           0.0000     0.0000     0.0000 ca         1 F97      -0.109200
      2 C6           1.3930     0.0000     0.0000 ca         1 F97      -0.336300
      3 C7           2.0590     0.0000     1.2130 ca         1 F97       0.512200
      4 C10         -0.6700    -0.0070     1.2440 ca         1 F97      -0.427200
      5 N12         -2.2240     0.0010    -0.3590 nc         1 F97      -0.620100
      6 C15          3.5440    -1.2660    -0.8300 ca         1 F97      -0.455600
      7 C21          7.5790     0.7400    -2.4900 c3         1 F97       0.158800
      8 C22          8.8940     1.5130    -2.2460 c3         1 F97      -0.080400
      9 C24          7.8520     0.7600    -0.1610 c3         1 F97       0.089800
     10 C28          4.4280    -3.9100    -3.0490 c3         1 F97      -0.016400
     11 C1          -1.3230    -1.2600    -3.0320 c3         1 F97      -0.012600
     12 C3          -1.3630     1.2380    -3.0390 c3         1 F97      -0.012600
     13 N4          -0.9640     0.0010    -0.9670 na         1 F97       0.468900
     14 N8           1.3980    -0.0000     2.3650 nb         1 F97      -0.652000
     15 C9           0.0830    -0.0140     2.4200 ca         1 F97       0.536200
     16 C11         -2.0960    -0.0050     0.9380 cd         1 F97       0.461800
     17 N13          3.4520    -0.0010     1.2260 nu         1 F97      -0.383600
     18 C14          4.1560    -0.4410     0.1140 ca         1 F97       0.544200
     19 C16          4.2840    -1.6790    -1.9220 ca         1 F97       0.473600
     20 N17          5.5430    -1.2840    -2.0390 nb         1 F97      -0.665000
     21 C18          6.0980    -0.5010    -1.1250 ca         1 F97       0.739900
     22 N19          5.4250    -0.0830    -0.0650 nb         1 F97      -0.721000
     23 N20          7.4170    -0.1100    -1.2830 nh         1 F97      -0.450300
     24 C23          9.0730     1.5260    -0.7150 c3         1 F97       0.367600
     25 F25          9.0800     2.8400    -0.2350 f          1 F97      -0.214300
     26 F26         10.2580     0.8740    -0.3580 f          1 F97      -0.214300
     27 C27          3.6660    -2.5700    -2.9680 c3         1 F97      -0.103000
     28 C29          4.9730    -3.9730    -4.4920 c3         1 F97       0.143800
     29 N30          4.0710    -3.0880    -5.2730 n7         1 F97      -0.584200
     30 C31          3.8140    -1.9370    -4.3680 c3         1 F97       0.144800
     31 H1           1.9440     0.0000    -0.9320 ha         1 F97       0.154000
     32 H2           2.5120    -1.5740    -0.7110 ha         1 F97       0.166000
     33 H3           7.6640     0.1240    -3.3760 h1         1 F97       0.028700
     34 H4           6.7480     1.4300    -2.5790 h1         1 F97       0.028700
     35 H5           8.8080     2.5250    -2.6220 hc         1 F97       0.049700
     36 H6           9.7230     0.9990    -2.7160 hc         1 F97       0.049700
     37 H7           7.0630     1.4520     0.1070 h1         1 F97       0.059700
     38 H8           8.1410     0.1580     0.6920 h1         1 F97       0.059700
     39 H9           3.7520    -4.7370    -2.8670 hc         1 F97       0.025700
     40 H10          5.2450    -3.9200    -2.3390 hc         1 F97       0.025700
     41 H11         -1.0410    -1.3200    -4.0760 hc         1 F97       0.017367
     42 H12         -2.4020    -1.2250    -2.9510 hc         1 F97       0.017367
     43 H13         -0.9490    -2.1310    -2.5070 hc         1 F97       0.017367
     44 H14          0.3500     0.0180    -2.5960 h1         1 F97       0.038700
     45 H15         -1.1170     1.2780    -4.0930 hc         1 F97       0.017367
     46 H16         -1.0150     2.1410    -2.5520 hc         1 F97       0.017367
     47 H17         -2.4370     1.1550    -2.9210 hc         1 F97       0.017367
     48 H18         -0.4170    -0.0140     3.3810 h4         1 F97      -0.020900
     49 H19         -2.9040    -0.0060     1.6600 h4         1 F97       0.016800
     50 H20          3.9450     0.3040     2.0410 hn         1 F97       0.302800
     51 H21          2.6200    -2.7480    -2.7470 hc         1 F97       0.038700
     52 H22          4.9220    -4.9880    -4.8690 h1         1 F97       0.014700
     53 H23          5.9890    -3.6000    -4.5280 h1         1 F97       0.014700
     54 H24          4.5460    -2.7680    -6.0930 hn         1 F97       0.253800
     55 H26          2.8990    -1.4320    -4.6520 h1         1 F97       0.016700
     56 H27          4.6530    -1.2520    -4.3840 h1         1 F97       0.016700
     57 C2          -0.7180     0.0010    -2.4110 c3         1 F97      -0.028000
@<TRIPOS>BOND
     1     1     2 ar  
     2     1     4 ar  
     3     1    13 1   
     4     2     3 ar  
     5     2    31 1   
     6     3    14 ar  
     7     3    17 1   
     8     4    15 ar  
     9     4    16 1   
    10     5    13 1   
    11     5    16 2   
    12     6    18 ar  
    13     6    19 ar  
    14     6    32 1   
    15     7     8 1   
    16     7    23 1   
    17     7    33 1   
    18     7    34 1   
    19     8    24 1   
    20     8    35 1   
    21     8    36 1   
    22     9    23 1   
    23     9    24 1   
    24     9    37 1   
    25     9    38 1   
    26    10    27 1   
    27    10    28 1   
    28    10    39 1   
    29    10    40 1   
    30    11    41 1   
    31    11    42 1   
    32    11    43 1   
    33    11    57 1   
    34    12    45 1   
    35    12    46 1   
    36    12    47 1   
    37    12    57 1   
    38    13    57 1   
    39    14    15 ar  
    40    15    48 1   
    41    16    49 1   
    42    17    18 1   
    43    17    50 1   
    44    18    22 ar  
    45    19    20 ar  
    46    19    27 1   
    47    20    21 ar  
    48    21    22 ar  
    49    21    23 1   
    50    24    25 1   
    51    24    26 1   
    52    27    30 1   
    53    27    51 1   
    54    28    29 1   
    55    28    52 1   
    56    28    53 1   
    57    29    30 1   
    58    29    54 1   
    59    30    55 1   
    60    30    56 1   
    61    44    57 1   
@<TRIPOS>SUBSTRUCTURE
     1 F97         1 TEMP              0 ****  ****    0 ROOT
