@<TRIPOS>MOLECULE
molecule
   57    61     1     0     0
SMALL
bcc


@<TRIPOS>ATOM
      1 C5           0.0000     0.0000     0.0000 ca         1 F97       0.034800
      2 C6           1.3930     0.0000     0.0000 ca         1 F97      -0.347300
      3 C7           2.0590     0.0000     1.2130 ca         1 F97       0.710200
      4 C10         -0.6700    -0.0070     1.2440 ca         1 F97      -0.414200
      5 N12         -2.2240     0.0010    -0.3590 nc         1 F97      -0.497100
      6 C15          3.5440    -1.2660    -0.8300 ca         1 F97      -0.457600
      7 C21          7.5790     0.7400    -2.4900 c3         1 F97       0.162800
      8 C22          8.8940     1.5130    -2.2460 c3         1 F97      -0.132400
      9 C24          7.8520     0.7600    -0.1610 c3         1 F97       0.116800
     10 C28          4.4280    -3.9100    -3.0490 c3         1 F97      -0.069400
     11 C1          -1.3230    -1.2600    -3.0320 c3         1 F97      -0.107100
     12 C3          -1.3630     1.2380    -3.0390 c3         1 F97      -0.107100
     13 N4          -0.9640     0.0010    -0.9670 na         1 F97       0.066900
     14 N8           1.3980    -0.0000     2.3650 nb         1 F97      -0.761000
     15 C9           0.0830    -0.0140     2.4200 ca         1 F97       0.534200
     16 C11         -2.0960    -0.0050     0.9380 cd         1 F97       0.394800
     17 N13          3.4520    -0.0010     1.2260 nu         1 F97      -0.856600
     18 C14          4.1560    -0.4410     0.1140 ca         1 F97       0.742200
     19 C16          4.2840    -1.6790    -1.9220 ca         1 F97       0.510600
     20 N17          5.5430    -1.2840    -2.0390 nb         1 F97      -0.775000
     21 C18          6.0980    -0.5010    -1.1250 ca         1 F97       0.894900
     22 N19          5.4250    -0.0830    -0.0650 nb         1 F97      -0.836000
     23 N20          7.4170    -0.1100    -1.2830 nh         1 F97      -0.652300
     24 C23          9.0730     1.5260    -0.7150 c3         1 F97       0.391600
     25 F25          9.0800     2.8400    -0.2350 f          1 F97      -0.228300
     26 F26         10.2580     0.8740    -0.3580 f          1 F97      -0.228300
     27 C27          3.6660    -2.5700    -2.9680 c3         1 F97      -0.124000
     28 C29          4.9730    -3.9730    -4.4920 c3         1 F97       0.138800
     29 N30          4.0710    -3.0880    -5.2730 n7         1 F97      -0.793200
     30 C31          3.8140    -1.9370    -4.3680 c3         1 F97       0.146800
     31 H1           1.9440     0.0000    -0.9320 ha         1 F97       0.159000
     32 H2           2.5120    -1.5740    -0.7110 ha         1 F97       0.171000
     33 H3           7.6640     0.1240    -3.3760 h1         1 F97       0.063200
     34 H4           6.7480     1.4300    -2.5790 h1         1 F97       0.063200
     35 H5           8.8080     2.5250    -2.6220 hc         1 F97       0.080700
     36 H6           9.7230     0.9990    -2.7160 hc         1 F97       0.080700
     37 H7           7.0630     1.4520     0.1070 h1         1 F97       0.090700
     38 H8           8.1410     0.1580     0.6920 h1         1 F97       0.090700
     39 H9           3.7520    -4.7370    -2.8670 hc         1 F97       0.058200
     40 H10          5.2450    -3.9200    -2.3390 hc         1 F97       0.058200
     41 H11         -1.0410    -1.3200    -4.0760 hc         1 F97       0.050200
     42 H12         -2.4020    -1.2250    -2.9510 hc         1 F97       0.050200
     43 H13         -0.9490    -2.1310    -2.5070 hc         1 F97       0.050200
     44 H14          0.3500     0.0180    -2.5960 h1         1 F97       0.065700
     45 H15         -1.1170     1.2780    -4.0930 hc         1 F97       0.050200
     46 H16         -1.0150     2.1410    -2.5520 hc         1 F97       0.050200
     47 H17         -2.4370     1.1550    -2.9210 hc         1 F97       0.050200
     48 H18         -0.4170    -0.0140     3.3810 h4         1 F97       0.030100
     49 H19         -2.9040    -0.0060     1.6600 h4         1 F97       0.064800
     50 H20          3.9450     0.3040     2.0410 hn         1 F97       0.475800
     51 H21          2.6200    -2.7480    -2.7470 hc         1 F97       0.070700
     52 H22          4.9220    -4.9880    -4.8690 h1         1 F97       0.045700
     53 H23          5.9890    -3.6000    -4.5280 h1         1 F97       0.045700
     54 H24          4.5460    -2.7680    -6.0930 hn         1 F97       0.347800
     55 H26          2.8990    -1.4320    -4.6520 h1         1 F97       0.047200
     56 H27          4.6530    -1.2520    -4.3840 h1         1 F97       0.047200
     57 C2          -0.7180     0.0010    -2.4110 c3         1 F97       0.085000
@<TRIPOS>BOND
     1    15    14 ar
     2    15     4 ar
     3    14     3 ar
     4     4    16 1
     5     4     1 ar
     6    16     5 2
     7    17     3 1
     8    17    18 1
     9     3     2 ar
    10     6    18 ar
    11     6    19 ar
    12     1     2 ar
    13     1    13 1
    14    10    27 1
    15    10    28 1
    16    18    22 ar
    17     5    13 1
    18    27    19 1
    19    27    30 1
    20    28    29 1
    21    19    20 ar
    22    13    57 1
    23    22    21 ar
    24    20    21 ar
    25    30    29 1
    26    21    23 1
    27    57    11 1
    28    57    12 1
    29    23     9 1
    30    23     7 1
    31     9    24 1
    32     7     8 1
    33    24    26 1
    34    24    25 1
    35    24     8 1
    36     2    31 1
    37     6    32 1
    38     7    33 1
    39     7    34 1
    40     8    35 1
    41     8    36 1
    42     9    37 1
    43     9    38 1
    44    10    39 1
    45    10    40 1
    46    11    41 1
    47    11    42 1
    48    11    43 1
    49    57    44 1
    50    12    45 1
    51    12    46 1
    52    12    47 1
    53    15    48 1
    54    16    49 1
    55    17    50 1
    56    27    51 1
    57    28    52 1
    58    28    53 1
    59    29    54 1
    60    30    55 1
    61    30    56 1
@<TRIPOS>SUBSTRUCTURE
     1 F97         1 TEMP              0 ****  ****    0 ROOT
