@<TRIPOS>MOLECULE
molecule
   22    21     1     0     0
SMALL
bcc


@<TRIPOS>ATOM
      1 C1           0.0000     0.0000     0.0000 c          1 F98       0.665100
      2 N1           1.3480     0.0000     0.0000 n          1 F98      -0.360300
      3 O1          -0.6060     0.0000     1.0500 o          1 F98      -0.583100
      4 C2           2.0790    -0.0010     1.2690 c3         1 F98       0.097000
      5 O2           2.0560     0.0000    -1.2260 oh         1 F98      -0.407100
      6 C3           2.0110    -1.3940     1.8970 c3         1 F98      -0.058400
      7 C4           2.7750    -1.3940     3.2230 c3         1 F98      -0.237600
      8 C11         -0.7530     0.0070    -1.3060 c3         1 F98      -0.167100
      9 PA1          2.6930    -3.0540     3.9710 p5         1 F98       1.048700
     10 OP1          1.1680    -3.3940     4.3580 o          1 F98      -0.916500
     11 OP2          3.1910    -4.0570     3.0020 o          1 F98      -0.916500
     12 OP3          3.6060    -3.0910     5.2970 o          1 F98      -0.916500
     13 H2           1.6340     0.7210     1.9430 h1         1 F98       0.039200
     14 H2A          3.1140     0.2640     1.0890 h1         1 F98       0.039200
     15 HO2          2.5040     0.8240    -1.3300 ho         1 F98       0.374000
     16 H3           2.4570    -2.1160     1.2240 hc         1 F98       0.065700
     17 H3A          0.9760    -1.6590     2.0770 hc         1 F98       0.065700
     18 H4           2.3300    -0.6720     3.8970 hc         1 F98       0.014700
     19 H4A          3.8100    -1.1300     3.0430 hc         1 F98       0.014700
     20 H11         -1.8180    -0.0190    -1.1090 hc         1 F98       0.045700
     21 H11A        -0.5090     0.9060    -1.8590 hc         1 F98       0.045700
     22 H11B        -0.4720    -0.8630    -1.8890 hc         1 F98       0.045700
@<TRIPOS>BOND
     1     1     2 1
     2     1     3 2
     3     1     8 1
     4     2     4 1
     5     2     5 1
     6     4     6 1
     7     6     7 1
     8     7     9 1
     9     9    10 1
    10     9    11 1
    11     9    12 1
    12     4    13 1
    13     4    14 1
    14     5    15 1
    15     6    16 1
    16     6    17 1
    17     7    18 1
    18     7    19 1
    19     8    20 1
    20     8    21 1
    21     8    22 1
@<TRIPOS>SUBSTRUCTURE
     1 F98         1 TEMP              0 ****  ****    0 ROOT
