@<TRIPOS>MOLECULE
molecule
   40    41     1     0     0
SMALL
bcc


@<TRIPOS>ATOM
      1 O            0.0000     0.0000     0.0000 o          1 F9A      -0.563100
      2 F1          -0.7100    -0.0020    -3.8170 f          1 F9A      -0.214633
      3 N1           1.8900     0.0000     1.1670 ns         1 F9A      -0.471100
      4 C2           1.2590    -0.0010    -2.4910 ca         1 F9A      -0.123300
      5 F2          -0.7170     1.1400    -1.8370 f          1 F9A      -0.214633
      6 C3           1.9540     0.0000    -1.2800 ca         1 F9A      -0.102600
      7 F3          -0.7160    -1.1450    -1.8390 f          1 F9A      -0.214633
      8 C4           3.3500     0.0010    -1.2840 ca         1 F9A      -0.111000
      9 C5           4.0330     0.0010    -2.4820 ca         1 F9A      -0.111000
     10 C6           3.3380     0.0010    -3.6790 ca         1 F9A      -0.110000
     11 C7           1.9550    -0.0050    -3.6820 ca         1 F9A      -0.093000
     12 C8           1.2150     0.0000     0.0000 c          1 F9A       0.662700
     13 C9           1.1950     0.1110     2.3760 ca         1 F9A       0.053600
     14 C10          0.0340     0.8710     2.4440 ca         1 F9A      -0.104000
     15 C11         -0.6500     0.9790     3.6390 ca         1 F9A      -0.061300
     16 C12         -0.1790     0.3320     4.7670 ca         1 F9A      -0.141000
     17 C13          0.9770    -0.4250     4.7020 ca         1 F9A      -0.113000
     18 C14          1.6620    -0.5410     3.5100 ca         1 F9A      -0.162000
     19 C15         -1.9090     1.8020     3.7140 c3         1 F9A       0.208100
     20 C16         -3.2580    -0.0700     4.4480 c3         1 F9A       0.147100
     21 C17         -4.2840     1.7610     3.2400 c3         1 F9A       0.147100
     22 HN1          2.8840    -0.1130     1.1710 hn         1 F9A       0.323500
     23 H4           3.8960     0.0010    -0.3490 ha         1 F9A       0.133000
     24 H5           5.1160     0.0040    -2.4860 ha         1 F9A       0.139000
     25 H6           3.8800    -0.0010    -4.6170 ha         1 F9A       0.142000
     26 H7           1.4160    -0.0050    -4.6220 ha         1 F9A       0.158000
     27 H10         -0.3350     1.3780     1.5600 ha         1 F9A       0.167000
     28 H12         -0.7150     0.4200     5.7040 ha         1 F9A       0.129000
     29 H13          1.3410    -0.9320     5.5870 ha         1 F9A       0.130000
     30 H14          2.5680    -1.1340     3.4600 ha         1 F9A       0.126000
     31 H15         -1.8550     2.6100     2.9940 h1         1 F9A       0.039700
     32 H15A        -2.0130     2.2130     4.7110 h1         1 F9A       0.039700
     33 H16         -4.2850    -0.4140     4.4320 h1         1 F9A       0.032700
     34 H16A        -2.5970    -0.8930     4.2050 h1         1 F9A       0.032700
     35 H16B        -3.0180     0.3070     5.4350 h1         1 F9A       0.032700
     36 H17         -5.1080     1.1180     2.9540 h1         1 F9A       0.032700
     37 H17A        -4.1080     2.4910     2.4590 h1         1 F9A       0.032700
     38 H17B        -4.5280     2.2710     4.1640 h1         1 F9A       0.032700
     39 C1          -0.2480    -0.0020    -2.4960 c3         1 F9A       0.684200
     40 N2          -3.0690     0.9520     3.4100 n3         1 F9A      -0.714600
@<TRIPOS>BOND
     1     1    12 2
     2    39     2 1
     3    39     4 1
     4    39     5 1
     5    39     7 1
     6     3    12 1
     7     3    13 1
     8     4     6 ar
     9     4    11 ar
    10    40    19 1
    11    40    20 1
    12    40    21 1
    13     6     8 ar
    14     6    12 1
    15     8     9 ar
    16     9    10 ar
    17    10    11 ar
    18    13    14 ar
    19    13    18 ar
    20    14    15 ar
    21    15    16 ar
    22    15    19 1
    23    16    17 ar
    24    17    18 ar
    25     3    22 1
    26     8    23 1
    27     9    24 1
    28    10    25 1
    29    11    26 1
    30    14    27 1
    31    16    28 1
    32    17    29 1
    33    18    30 1
    34    19    31 1
    35    19    32 1
    36    20    33 1
    37    20    34 1
    38    20    35 1
    39    21    36 1
    40    21    37 1
    41    21    38 1
@<TRIPOS>SUBSTRUCTURE
     1 F9A         1 TEMP              0 ****  ****    0 ROOT
