@<TRIPOS>MOLECULE
F9A
   40    41     1     0     0
SMALL
bcc


@<TRIPOS>ATOM
      1 O            0.0000     0.0000     0.0000 o          1 F9A      -0.611100
      2 F1          -0.7100    -0.0020    -3.8170 f          1 F9A      -0.205300
      3 N1           1.8900     0.0000     1.1670 ns         1 F9A      -0.025100
      4 C2           1.2590    -0.0010    -2.4910 ca         1 F9A      -0.144300
      5 F2          -0.7170     1.1400    -1.8370 f          1 F9A      -0.205300
      6 C3           1.9540     0.0000    -1.2800 ca         1 F9A      -0.097600
      7 F3          -0.7160    -1.1450    -1.8390 f          1 F9A      -0.205300
      8 C4           3.3500     0.0010    -1.2840 ca         1 F9A      -0.093000
      9 C5           4.0330     0.0010    -2.4820 ca         1 F9A      -0.076000
     10 C6           3.3380     0.0010    -3.6790 ca         1 F9A      -0.084000
     11 C7           1.9550    -0.0050    -3.6820 ca         1 F9A      -0.057000
     12 C8           1.2150     0.0000     0.0000 c          1 F9A       0.568700
     13 C9           1.1950     0.1110     2.3760 ca         1 F9A      -0.095400
     14 C10          0.0340     0.8710     2.4440 ca         1 F9A      -0.077000
     15 C11         -0.6500     0.9790     3.6390 ca         1 F9A      -0.069300
     16 C12         -0.1790     0.3320     4.7670 ca         1 F9A      -0.113000
     17 C13          0.9770    -0.4250     4.7020 ca         1 F9A      -0.084000
     18 C14          1.6620    -0.5410     3.5100 ca         1 F9A      -0.134000
     19 C15         -1.9090     1.8020     3.7140 c3         1 F9A       0.210100
     20 C16         -3.2580    -0.0700     4.4480 c3         1 F9A       0.176600
     21 C17         -4.2840     1.7610     3.2400 c3         1 F9A       0.176600
     22 HN1          2.8840    -0.1130     1.1710 hn         1 F9A       0.169500
     23 H4           3.8960     0.0010    -0.3490 ha         1 F9A       0.108000
     24 H5           5.1160     0.0040    -2.4860 ha         1 F9A       0.108000
     25 H6           3.8800    -0.0010    -4.6170 ha         1 F9A       0.111000
     26 H7           1.4160    -0.0050    -4.6220 ha         1 F9A       0.126000
     27 H10         -0.3350     1.3780     1.5600 ha         1 F9A       0.147000
     28 H12         -0.7150     0.4200     5.7040 ha         1 F9A       0.107000
     29 H13          1.3410    -0.9320     5.5870 ha         1 F9A       0.102000
     30 H14          2.5680    -1.1340     3.4600 ha         1 F9A       0.102000
     31 H15         -1.8550     2.6100     2.9940 h1         1 F9A       0.011700
     32 H15A        -2.0130     2.2130     4.7110 h1         1 F9A       0.011700
     33 H16         -4.2850    -0.4140     4.4320 h1         1 F9A       0.002200
     34 H16A        -2.5970    -0.8930     4.2050 h1         1 F9A       0.002200
     35 H16B        -3.0180     0.3070     5.4350 h1         1 F9A       0.002200
     36 H17         -5.1080     1.1180     2.9540 h1         1 F9A       0.002200
     37 H17A        -4.1080     2.4910     2.4590 h1         1 F9A       0.002200
     38 H17B        -4.5280     2.2710     4.1640 h1         1 F9A       0.002200
     39 C1          -0.2480    -0.0020    -2.4960 c3         1 F9A       0.660200
     40 N2          -3.0690     0.9520     3.4100 n3         1 F9A      -0.531600
@<TRIPOS>BOND
     1     1    12 2   
     2     2    39 1   
     3     3    12 1   
     4     3    13 1   
     5     3    22 1   
     6     4     6 ar  
     7     4    11 ar  
     8     4    39 1   
     9     5    39 1   
    10     6     8 ar  
    11     6    12 1   
    12     7    39 1   
    13     8     9 ar  
    14     8    23 1   
    15     9    10 ar  
    16     9    24 1   
    17    10    11 ar  
    18    10    25 1   
    19    11    26 1   
    20    13    14 ar  
    21    13    18 ar  
    22    14    15 ar  
    23    14    27 1   
    24    15    16 ar  
    25    15    19 1   
    26    16    17 ar  
    27    16    28 1   
    28    17    18 ar  
    29    17    29 1   
    30    18    30 1   
    31    19    31 1   
    32    19    32 1   
    33    19    40 1   
    34    20    33 1   
    35    20    34 1   
    36    20    35 1   
    37    20    40 1   
    38    21    36 1   
    39    21    37 1   
    40    21    38 1   
    41    21    40 1   
@<TRIPOS>SUBSTRUCTURE
     1 F9A         1 TEMP              0 ****  ****    0 ROOT
