@<TRIPOS>MOLECULE
molecule
   42    43     1     0     0
SMALL
bcc


@<TRIPOS>ATOM
      1 N1           0.0000     0.0000     0.0000 n7         1 F9B      -0.779200
      2 C4           6.5880    -0.9140     5.3300 ca         1 F9B       0.019000
      3 C5           5.2190    -0.7990     4.9820 ca         1 F9B      -0.060000
      4 C6           4.2380    -1.0860     5.9450 ca         1 F9B      -0.097000
      5 C7           7.5710    -0.6250     4.3660 ca         1 F9B      -0.188000
      6 C8           7.1980    -0.2400     3.1150 ca         1 F9B      -0.090000
      7 C10          4.8690    -0.3980     3.6770 ca         1 F9B       0.353100
      8 C13          1.4690     0.0000     0.0000 c3         1 F9B       0.146800
      9 C15         -1.9300    -0.6080    -1.3790 c3         1 F9B       0.151400
     10 O2           1.5030     1.1670     2.1160 oh         1 F9B      -0.573800
     11 C12          1.9780     0.0000     1.4420 c3         1 F9B       0.124100
     12 C14         -0.5270     0.0000    -1.3710 c3         1 F9B       0.171500
     13 O3          -2.8170     0.2290    -0.6340 oh         1 F9B      -0.561800
     14 C16         -0.5920     1.4380    -1.8930 c3         1 F9B       0.151400
     15 O4          -1.5390     2.1810    -1.1240 oh         1 F9B      -0.561800
     16 C11          3.5080    -0.0010     1.4420 c3         1 F9B       0.335400
     17 O1           3.9850    -0.1180     2.7840 os         1 F9B      -0.595900
     18 C9           5.8530    -0.1270     2.7690 ca         1 F9B      -0.289000
     19 C3           6.9380    -1.3080     6.6330 ca         1 F9B      -0.129000
     20 C2           5.9590    -1.5800     7.5390 ca         1 F9B      -0.112000
     21 C1           4.6140    -1.4710     7.1950 ca         1 F9B      -0.149000
     22 H1          -0.3340    -0.8090     0.4850 hn         1 F9B       0.352800
     23 H4           8.6210    -0.7080     4.6190 ha         1 F9B       0.130000
     24 H5           7.9590    -0.0190     2.3770 ha         1 F9B       0.118000
     25 H6           1.8300    -0.8850    -0.5110 h1         1 F9B       0.038200
     26 H7           1.8300     0.8840    -0.5110 h1         1 F9B       0.038200
     27 H8          -2.2830    -0.6890    -2.4000 h1         1 F9B       0.015950
     28 H9          -1.9000    -1.5930    -0.9290 h1         1 F9B       0.015950
     29 H10          1.0450     0.9120     2.9000 ho         1 F9B       0.411000
     30 H11          1.6160    -0.8840     1.9530 h1         1 F9B       0.041700
     31 H12          0.1240    -0.5860    -2.0080 h1         1 F9B       0.030700
     32 H13         -3.6550    -0.1940    -0.5540 ho         1 F9B       0.388000
     33 H14          0.3850     1.8980    -1.8060 h1         1 F9B       0.015950
     34 H15         -0.8960     1.4310    -2.9330 h1         1 F9B       0.015950
     35 H16         -1.5550     3.0750    -1.4230 ho         1 F9B       0.388000
     36 H17          3.8690    -0.8390     0.8570 h1         1 F9B       0.039700
     37 H18          3.8700     0.9240     1.0100 h1         1 F9B       0.039700
     38 H19          5.5850     0.1820     1.7660 ha         1 F9B       0.132000
     39 H20          7.9800    -1.3970     6.9140 ha         1 F9B       0.136000
     40 H21          6.2310    -1.8880     8.5410 ha         1 F9B       0.127000
     41 H22          3.8540    -1.6930     7.9360 ha         1 F9B       0.128000
     42 H3           3.1880    -1.0060     5.6930 ha         1 F9B       0.134000
@<TRIPOS>BOND
     1    13     9 1
     2     9    12 1
     3    21    20 ar
     4    21     4 ar
     5    20    19 ar
     6     4     3 ar
     7    12    14 1
     8    12     1 1
     9    14    15 1
    10    19     2 ar
    11     1     8 1
    12     3     2 ar
    13     3     7 ar
    14     8    11 1
    15    10    11 1
    16     2     5 ar
    17    17     7 1
    18    17    16 1
    19     7    18 ar
    20    11    16 1
    21     5     6 ar
    22    18     6 ar
    23     1    22 1
    24     4    42 1
    25     5    23 1
    26     6    24 1
    27     8    25 1
    28     8    26 1
    29     9    27 1
    30     9    28 1
    31    10    29 1
    32    11    30 1
    33    12    31 1
    34    13    32 1
    35    14    33 1
    36    14    34 1
    37    15    35 1
    38    16    36 1
    39    16    37 1
    40    18    38 1
    41    19    39 1
    42    20    40 1
    43    21    41 1
@<TRIPOS>SUBSTRUCTURE
     1 F9B         1 TEMP              0 ****  ****    0 ROOT
