@<TRIPOS>MOLECULE
F9E
   49    50     1     0     0
SMALL
bcc


@<TRIPOS>ATOM
      1 C10          0.0000     0.0000     0.0000 c3         1 F9E       0.194400
      2 C13          2.2000    -1.3060     1.8950 c3         1 F9E       0.190100
      3 C15          2.9250    -0.0320     3.9490 cc         1 F9E       0.292400
      4 C17          3.4060    -1.6500     5.3030 cd         1 F9E       0.254800
      5 C20          3.3200    -4.3710     5.0540 cc         1 F9E       0.212100
      6 C22          3.7920    -2.5440     6.3990 c          1 F9E       0.597000
      7 C02         -0.1680     5.1160    -0.5760 c3         1 F9E      -0.050700
      8 C03         -1.0570     3.9360    -0.1780 c3         1 F9E      -0.029100
      9 C04          1.2490     4.8910    -0.0420 c3         1 F9E      -0.143500
     10 C05          1.8090     3.6210    -0.6250 c          1 F9E       0.696100
     11 C08          2.0410     1.2500    -0.7200 c3         1 F9E       0.230400
     12 C09          1.5310     0.0000     0.0000 c3         1 F9E       0.173100
     13 C18          2.9840    -2.2230     4.1090 cc         1 F9E      -0.386000
     14 N14          2.6870    -1.1920     3.2720 na         1 F9E       0.289100
     15 N16          3.3490    -0.3070     5.1490 nd         1 F9E      -0.484000
     16 N19          2.9480    -3.5890     4.0060 na         1 F9E      -0.123600
     17 N21          3.7240    -3.8690     6.2010 nd         1 F9E      -0.487100
     18 N25          2.1020     6.0240    -0.4230 nz         1 F9E       0.087400
     19 O06          2.5740     3.6710    -1.5600 o          1 F9E      -0.566000
     20 O07          1.4620     2.4330    -0.1070 os         1 F9E      -0.342900
     21 O11         -0.4760     1.2210     0.5700 oh         1 F9E      -0.583800
     22 O12          2.0060     0.0000     1.3480 os         1 F9E      -0.393600
     23 H1          -0.3600    -0.8480     0.5710 h1         1 F9E       0.006700
     24 H2          -0.4020    -0.1040    -1.0000 h1         1 F9E       0.006700
     25 H3           2.9490    -1.8580     1.3410 h2         1 F9E       0.013700
     26 H4           1.2450    -1.8160     1.8650 h2         1 F9E       0.013700
     27 H5           2.7270     0.9410     3.5150 h5         1 F9E       0.048100
     28 H6           0.0070     6.8700     0.6530 hc         1 F9E       0.033200
     29 H7          -0.9230     7.0830    -0.8090 hc         1 F9E       0.033200
     30 H8          -1.6230     6.1980     0.6050 hc         1 F9E       0.033200
     31 H9          -0.1250     5.1950    -1.6550 hc         1 F9E       0.052700
     32 H10         -1.6500     3.6430    -1.0370 hc         1 F9E       0.033200
     33 H11         -1.7100     4.1730     0.6530 hc         1 F9E       0.033200
     34 H12         -0.4230     3.1010     0.0970 hc         1 F9E       0.033200
     35 H13          1.1610     4.7930     1.0340 hx         1 F9E       0.117700
     36 H14          1.7490     1.1970    -1.7620 h1         1 F9E       0.034700
     37 H15          3.1210     1.2770    -0.6520 h1         1 F9E       0.034700
     38 H16          1.8920    -0.8840    -0.5110 h1         1 F9E       0.035700
     39 H17          2.6260    -3.9850     3.1460 hn         1 F9E       0.275800
     40 H18          2.4440    -6.1450     5.2960 hn         1 F9E       0.235467
     41 H19          3.2100    -5.5280     3.9330 hn         1 F9E       0.235467
     42 H20          2.1300     6.7340     0.2820 hn         1 F9E       0.236467
     43 H21          3.0490     5.7090    -0.4980 hn         1 F9E       0.236467
     44 H23         -1.2930     1.4430     0.1560 ho         1 F9E       0.408000
     45 N24          3.2710    -5.7310     4.9110 nz         1 F9E       0.180400
     46 C01         -0.7380     6.4070     0.0170 c3         1 F9E      -0.029100
     47 H253         1.7370     6.3800    -1.2840 hn         1 F9E       0.236467
     48 H243         4.0710    -6.2030     5.2850 hn         1 F9E       0.235467
     49 O23          4.1700    -2.0920     7.4680 o          1 F9E      -0.442100
@<TRIPOS>BOND
     1     1    12 1   
     2     1    21 1   
     3     1    23 1   
     4     1    24 1   
     5     2    14 1   
     6     2    22 1   
     7     2    25 1   
     8     2    26 1   
     9     3    14 1   
    10     3    15 2   
    11     3    27 1   
    12     4     6 1   
    13     4    13 2   
    14     4    15 1   
    15     5    16 1   
    16     5    17 2   
    17     5    45 1   
    18     6    17 1   
    19     6    49 2   
    20     7     8 1   
    21     7     9 1   
    22     7    31 1   
    23     7    46 1   
    24     8    32 1   
    25     8    33 1   
    26     8    34 1   
    27     9    10 1   
    28     9    18 1   
    29     9    35 1   
    30    10    19 2   
    31    10    20 1   
    32    11    12 1   
    33    11    20 1   
    34    11    36 1   
    35    11    37 1   
    36    12    22 1   
    37    12    38 1   
    38    13    14 1   
    39    13    16 1   
    40    16    39 1   
    41    18    42 1   
    42    18    43 1   
    43    18    47 1   
    44    21    44 1   
    45    28    46 1   
    46    29    46 1   
    47    30    46 1   
    48    40    45 1   
    49    41    45 1   
    50    45    48 1   
@<TRIPOS>SUBSTRUCTURE
     1 F9E         1 TEMP              0 ****  ****    0 ROOT
