@<TRIPOS>MOLECULE
molecule
   31    31     1     0     0
SMALL
bcc


@<TRIPOS>ATOM
      1 C1           0.0000     0.0000     0.0000 ca         1 F9F       0.119100
      2 C2           1.3870     0.0000     0.0000 ca         1 F9F      -0.201500
      3 C3           2.0760     0.0000     1.1980 ca         1 F9F       0.009500
      4 C4           1.3850    -0.0100     2.3950 ca         1 F9F      -0.308500
      5 C5           0.0030    -0.0100     2.3970 ca         1 F9F       0.009500
      6 C6          -0.6910    -0.0040     1.2030 ca         1 F9F      -0.201500
      7 O7          -0.6800     0.0070    -1.1760 os         1 F9F      -0.311900
      8 C8           0.2970     0.0100    -2.2190 c3         1 F9F       0.778700
      9 F9F          1.0970    -1.1330    -2.1130 f          1 F9F      -0.206300
     10 F10         -0.3460     0.0160    -3.4610 f          1 F9F      -0.206300
     11 F11          1.0980     1.1520    -2.1030 f          1 F9F      -0.206300
     12 S12          2.2670    -0.0180     3.9200 sy         1 F9F       1.409200
     13 N13          2.5140    -1.6000     4.3410 n7         1 F9F      -0.876100
     14 C14          3.3620    -2.4570     3.5090 c3         1 F9F       0.216800
     15 C15          3.7300    -3.7220     4.2860 c3         1 F9F       0.152400
     16 O16          2.5490    -4.4870     4.5360 os         1 F9F      -0.543200
     17 P17          3.0080    -5.7960     5.3530 p5         1 F9F       1.145900
     18 O18          1.7430    -6.7730     5.5560 o          1 F9F      -0.906833
     19 O19          4.0630    -6.5070     4.5960 o          1 F9F      -0.906833
     20 O20          3.5820    -5.3570     6.7910 o          1 F9F      -0.906833
     21 O21          1.3680     0.5040     4.8880 o          1 F9F      -0.663300
     22 O22          3.5540     0.5080     3.6250 o          1 F9F      -0.663300
     23 H2           1.9290     0.0060    -0.9380 ha         1 F9F       0.149500
     24 H3           3.1600    -0.0000     1.1990 ha         1 F9F       0.162000
     25 H5          -0.5370    -0.0160     3.3360 ha         1 F9F       0.162000
     26 H6          -1.7750    -0.0040     1.2050 ha         1 F9F       0.149500
     27 H13          2.0930    -1.9680     5.1710 hn         1 F9F       0.491800
     28 H141         2.8260    -2.7300     2.6080 h1         1 F9F       0.022200
     29 H142         4.2660    -1.9220     3.2430 h1         1 F9F       0.022200
     30 H151         4.4270    -4.3130     3.7060 h1         1 F9F       0.053700
     31 H152         4.1870    -3.4460     5.2290 h1         1 F9F       0.053700
@<TRIPOS>BOND
     1     1     2 ar
     2     1     6 ar
     3     1     7 1
     4     2     3 ar
     5     2    23 1
     6     3     4 ar
     7     3    24 1
     8     4     5 ar
     9     4    12 1
    10     5     6 ar
    11     5    25 1
    12     6    26 1
    13     7     8 1
    14     8     9 1
    15     8    10 1
    16     8    11 1
    17    12    13 1
    18    12    21 2
    19    12    22 2
    20    13    14 1
    21    13    27 1
    22    14    15 1
    23    14    28 1
    24    14    29 1
    25    15    16 1
    26    15    30 1
    27    15    31 1
    28    16    17 1
    29    17    18 1
    30    17    19 1
    31    17    20 1
@<TRIPOS>SUBSTRUCTURE
     1 F9F         1 TEMP              0 ****  ****    0 ROOT
