@<TRIPOS>MOLECULE
F9J
   50    53     1     0     0
SMALL
bcc


@<TRIPOS>ATOM
      1 C1           0.0000     0.0000     0.0000 c3         1 F9J      -0.003400
      2 C2           1.5070     0.0000     0.0000 cc         1 F9J       0.379600
      3 C3           2.3250     0.0000     1.1330 cc         1 F9J      -0.382300
      4 C4           3.6200    -0.0010     0.7130 cd         1 F9J      -0.168700
      5 N1           3.6090    -0.0010    -0.6400 na         1 F9J       0.416400
      6 N2           2.2730    -0.0050    -1.0600 nd         1 F9J      -0.659800
      7 N3           4.7510    -0.0000     1.5270 nu         1 F9J      -0.240300
      8 C5           4.6140     0.1190     2.9020 ca         1 F9J       0.755900
      9 N4           3.4000     0.1230     3.4320 nb         1 F9J      -0.726000
     10 C6           3.2320     0.2350     4.7470 ca         1 F9J       0.565200
     11 C7           4.3540     0.3520     5.5660 ca         1 F9J      -0.232700
     12 C8           5.6100     0.3450     4.9720 ca         1 F9J       0.695600
     13 N5           5.7020     0.2230     3.6510 nb         1 F9J      -0.775000
     14 O1           6.7290     0.4550     5.7300 os         1 F9J      -0.388100
     15 C9           7.9750     0.5510     5.0370 c3         1 F9J       0.135800
     16 C10          8.2360     2.0110     4.6580 c3         1 F9J      -0.018100
     17 C11          9.0860     0.0590     5.9300 ca         1 F9J       0.568300
     18 N6           9.9960    -0.7520     5.4300 nb         1 F9J      -0.572000
     19 C12         10.9860    -1.2060     6.1830 ca         1 F9J       0.410700
     20 C13         11.0550    -0.8160     7.5130 ca         1 F9J      -0.127700
     21 C14         10.0780     0.0400     8.0000 ca         1 F9J       0.410700
     22 N7           9.1220     0.4550     7.1850 nb         1 F9J      -0.572000
     23 F1          12.0510    -1.2580     8.3130 f          1 F9J      -0.109900
     24 F2           4.2240     0.4690     6.9050 f          1 F9J      -0.103900
     25 N8           1.9570     0.2380     5.2950 nh         1 F9J      -0.441300
     26 C15          0.9340     0.1060     4.2480 c3         1 F9J       0.083300
     27 C16         -0.4510     0.0530     4.9000 c3         1 F9J       0.213900
     28 O2          -0.6410     1.2250     5.6980 os         1 F9J      -0.409600
     29 C17          0.3390     1.3850     6.7280 c3         1 F9J       0.213900
     30 C18          1.7310     1.4510     6.0950 c3         1 F9J       0.083300
     31 H11C        -0.3610    -0.0140    -1.0210 hc         1 F9J       0.010033
     32 H12C        -0.3610     0.8920     0.4980 hc         1 F9J       0.010033
     33 H13C        -0.3610    -0.8770     0.5230 hc         1 F9J       0.010033
     34 H3           1.9890     0.0000     2.1630 ha         1 F9J       0.198000
     35 H1           4.4140    -0.0030    -1.2350 hn         1 F9J       0.144700
     36 HA           5.6580    -0.1250     1.1230 hn         1 F9J       0.284800
     37 H9           7.9370    -0.0540     4.1400 h1         1 F9J       0.057700
     38 H101         8.3150     2.0950     3.5810 hc         1 F9J       0.017367
     39 H102         9.1600     2.3430     5.1150 hc         1 F9J       0.017367
     40 H103         7.4180     2.6270     5.0090 hc         1 F9J       0.017367
     41 H12         11.7320    -1.8730     5.7660 h4         1 F9J       0.001600
     42 H14         10.1000     0.3680     9.0330 h4         1 F9J       0.001600
     43 H151         1.1050    -0.8070     3.6900 h1         1 F9J       0.041450
     44 H152         0.9870     0.9590     3.5820 h1         1 F9J       0.041450
     45 H181         2.4790     1.5130     6.8760 h1         1 F9J       0.041450
     46 H182         1.7950     2.3220     5.4550 h1         1 F9J       0.041450
     47 H161        -1.2110     0.0140     4.1300 h1         1 F9J       0.016450
     48 H162        -0.5200    -0.8260     5.5290 h1         1 F9J       0.016450
     49 H171         0.2910     0.5410     7.4060 h1         1 F9J       0.016450
     50 H172         0.1450     2.3030     7.2700 h1         1 F9J       0.016450
@<TRIPOS>BOND
     1     1     2 1   
     2     1    31 1   
     3     1    32 1   
     4     1    33 1   
     5     2     3 1   
     6     2     6 2   
     7     3     4 2   
     8     3    34 1   
     9     4     5 1   
    10     4     7 1   
    11     5     6 1   
    12     5    35 1   
    13     7     8 1   
    14     7    36 1   
    15     8     9 ar  
    16     8    13 ar  
    17     9    10 ar  
    18    10    11 ar  
    19    10    25 1   
    20    11    12 ar  
    21    11    24 1   
    22    12    13 ar  
    23    12    14 1   
    24    14    15 1   
    25    15    16 1   
    26    15    17 1   
    27    15    37 1   
    28    16    38 1   
    29    16    39 1   
    30    16    40 1   
    31    17    18 ar  
    32    17    22 ar  
    33    18    19 ar  
    34    19    20 ar  
    35    19    41 1   
    36    20    21 ar  
    37    20    23 1   
    38    21    22 ar  
    39    21    42 1   
    40    25    26 1   
    41    25    30 1   
    42    26    27 1   
    43    26    43 1   
    44    26    44 1   
    45    27    28 1   
    46    27    47 1   
    47    27    48 1   
    48    28    29 1   
    49    29    30 1   
    50    29    49 1   
    51    29    50 1   
    52    30    45 1   
    53    30    46 1   
@<TRIPOS>SUBSTRUCTURE
     1 F9J         1 TEMP              0 ****  ****    0 ROOT
