@<TRIPOS>MOLECULE
molecule
   50    53     1     0     0
SMALL
bcc


@<TRIPOS>ATOM
      1 C1           0.0000     0.0000     0.0000 c3         1 F9J      -0.110400
      2 C2           1.5070     0.0000     0.0000 cc         1 F9J       0.349600
      3 C3           2.3250     0.0000     1.1330 cc         1 F9J      -0.369300
      4 C4           3.6200    -0.0010     0.7130 cd         1 F9J       0.159300
      5 N1           3.6090    -0.0010    -0.6400 na         1 F9J      -0.070600
      6 N2           2.2730    -0.0050    -1.0600 nd         1 F9J      -0.510800
      7 N3           4.7510    -0.0000     1.5270 nu         1 F9J      -0.734300
      8 C5           4.6140     0.1190     2.9020 ca         1 F9J       0.992900
      9 N4           3.4000     0.1230     3.4320 nb         1 F9J      -0.828000
     10 C6           3.2320     0.2350     4.7470 ca         1 F9J       0.677200
     11 C7           4.3540     0.3520     5.5660 ca         1 F9J      -0.192700
     12 C8           5.6100     0.3450     4.9720 ca         1 F9J       0.715600
     13 N5           5.7020     0.2230     3.6510 nb         1 F9J      -0.874000
     14 O1           6.7290     0.4550     5.7300 os         1 F9J      -0.402100
     15 C9           7.9750     0.5510     5.0370 c3         1 F9J       0.121800
     16 C10          8.2360     2.0110     4.6580 c3         1 F9J      -0.105100
     17 C11          9.0860     0.0590     5.9300 ca         1 F9J       0.664300
     18 N6           9.9960    -0.7520     5.4300 nb         1 F9J      -0.693500
     19 C12         10.9860    -1.2060     6.1830 ca         1 F9J       0.427200
     20 C13         11.0550    -0.8160     7.5130 ca         1 F9J      -0.115700
     21 C14         10.0780     0.0400     8.0000 ca         1 F9J       0.427200
     22 N7           9.1220     0.4550     7.1850 nb         1 F9J      -0.693500
     23 F1          12.0510    -1.2580     8.3130 f          1 F9J      -0.124900
     24 F2           4.2240     0.4690     6.9050 f          1 F9J      -0.117900
     25 N8           1.9570     0.2380     5.2950 nh         1 F9J      -0.683300
     26 C15          0.9340     0.1060     4.2480 c3         1 F9J       0.122800
     27 C16         -0.4510     0.0530     4.9000 c3         1 F9J       0.136400
     28 O2          -0.6410     1.2250     5.6980 os         1 F9J      -0.423600
     29 C17          0.3390     1.3850     6.7280 c3         1 F9J       0.136400
     30 C18          1.7310     1.4510     6.0950 c3         1 F9J       0.122800
     31 H11C        -0.3610    -0.0140    -1.0210 hc         1 F9J       0.049700
     32 H12C        -0.3610     0.8920     0.4980 hc         1 F9J       0.049700
     33 H13C        -0.3610    -0.8770     0.5230 hc         1 F9J       0.049700
     34 H3           1.9890     0.0000     2.1630 ha         1 F9J       0.201000
     35 H1           4.4140    -0.0030    -1.2350 hn         1 F9J       0.323700
     36 HA           5.6580    -0.1250     1.1230 hn         1 F9J       0.465800
     37 H9           7.9370    -0.0540     4.1400 h1         1 F9J       0.099700
     38 H101         8.3150     2.0950     3.5810 hc         1 F9J       0.053367
     39 H102         9.1600     2.3430     5.1150 hc         1 F9J       0.053367
     40 H103         7.4180     2.6270     5.0090 hc         1 F9J       0.053367
     41 H12         11.7320    -1.8730     5.7660 h4         1 F9J       0.047100
     42 H14         10.1000     0.3680     9.0330 h4         1 F9J       0.047100
     43 H151         1.1050    -0.8070     3.6900 h1         1 F9J       0.067700
     44 H152         0.9870     0.9590     3.5820 h1         1 F9J       0.067700
     45 H181         2.4790     1.5130     6.8760 h1         1 F9J       0.067700
     46 H182         1.7950     2.3220     5.4550 h1         1 F9J       0.067700
     47 H161        -1.2110     0.0140     4.1300 h1         1 F9J       0.058700
     48 H162        -0.5200    -0.8260     5.5290 h1         1 F9J       0.058700
     49 H171         0.2910     0.5410     7.4060 h1         1 F9J       0.058700
     50 H172         0.1450     2.3030     7.2700 h1         1 F9J       0.058700
@<TRIPOS>BOND
     1     1     2 1
     2     2     3 1
     3     2     6 2
     4     3     4 2
     5     4     5 1
     6     4     7 1
     7     5     6 1
     8     7     8 1
     9     8     9 ar
    10     8    13 ar
    11     9    10 ar
    12    10    11 ar
    13    10    25 1
    14    11    12 ar
    15    11    24 1
    16    12    13 ar
    17    12    14 1
    18    14    15 1
    19    15    16 1
    20    15    17 1
    21    17    18 ar
    22    17    22 ar
    23    18    19 ar
    24    19    20 ar
    25    20    21 ar
    26    20    23 1
    27    21    22 ar
    28    25    26 1
    29    25    30 1
    30    26    27 1
    31    27    28 1
    32    28    29 1
    33    29    30 1
    34     1    31 1
    35     1    32 1
    36     1    33 1
    37     3    34 1
    38     5    35 1
    39     7    36 1
    40    15    37 1
    41    16    38 1
    42    16    39 1
    43    16    40 1
    44    19    41 1
    45    21    42 1
    46    26    43 1
    47    26    44 1
    48    30    45 1
    49    30    46 1
    50    27    47 1
    51    27    48 1
    52    29    49 1
    53    29    50 1
@<TRIPOS>SUBSTRUCTURE
     1 F9J         1 TEMP              0 ****  ****    0 ROOT
