@<TRIPOS>MOLECULE
molecule
   67    70     1     0     0
SMALL
bcc


@<TRIPOS>ATOM
      1 C13          0.0000     0.0000     0.0000 c3         1 F9N      -0.073900
      2 C15          0.0010    -1.2510     2.1640 c3         1 F9N      -0.081400
      3 C17          2.0400     0.0000     1.4420 c3         1 F9N      -0.073900
      4 C20          7.6460     1.9880    -1.6550 cc         1 F9N       0.461700
      5 C22          6.0590     3.3500    -2.2310 ca         1 F9N       0.673300
      6 C24          4.9920     6.9020    -3.0350 ca         1 F9N      -0.067000
      7 C26          4.9840     8.7010    -4.6160 ca         1 F9N      -0.047000
      8 C28          3.2910     7.0460    -8.2030 c3         1 F9N       0.231800
      9 O01          1.6400     8.7870    -6.4140 o          1 F9N      -0.640300
     10 C03          3.7860     8.2460    -5.1340 ca         1 F9N      -0.297500
     11 C04          3.1800     7.1260    -4.5990 ca         1 F9N      -0.072000
     12 C05          3.7850     6.4470    -3.5500 ca         1 F9N       0.140600
     13 C07          3.9640     4.2690    -2.5280 ca         1 F9N       0.967900
     14 N08          3.3700     3.2480    -1.9220 nb         1 F9N      -0.861000
     15 C09          4.0770     2.2320    -1.4410 ca         1 F9N       0.753600
     16 O10          3.4630     1.1920    -0.8240 os         1 F9N      -0.444100
     17 C11          2.0390     1.2500    -0.7210 c3         1 F9N       0.147400
     18 C12          1.5290     0.0000     0.0000 c3         1 F9N      -0.074700
     19 C14         -0.5100    -1.2500     0.7210 c3         1 F9N      -0.078900
     20 C16          1.5300    -1.2500     2.1630 c3         1 F9N      -0.078900
     21 C18          5.4640     2.2540    -1.5850 ca         1 F9N      -0.407800
     22 N19          6.4990     1.4130    -1.2280 na         1 F9N      -0.236300
     23 N21          7.3860     3.1230    -2.2420 nd         1 F9N      -0.686700
     24 N23          5.2740     4.3320    -2.6850 nb         1 F9N      -0.786000
     25 C25          5.5870     8.0280    -3.5670 ca         1 F9N      -0.134000
     26 N27          3.6000     8.4400    -7.8720 n7         1 F9N      -0.915100
     27 C29          3.6040     6.7900    -9.6790 c3         1 F9N      -0.090400
     28 C30          3.2820     5.3360   -10.0240 c3         1 F9N       0.163800
     29 N31          3.5830     5.0900   -11.4410 n3         1 F9N      -0.731600
     30 C32          5.0250     5.2000   -11.7000 c3         1 F9N       0.150600
     31 C33          3.0700     3.7820   -11.8690 c3         1 F9N       0.150600
     32 O34          3.5170    10.4370    -6.4250 o          1 F9N      -0.640300
     33 H1          -0.3600     0.8830     0.5140 hc         1 F9N       0.045700
     34 H2          -0.3600    -0.0020    -1.0220 hc         1 F9N       0.045700
     35 H3          -0.3590    -0.3650     2.6730 hc         1 F9N       0.042700
     36 H4          -0.3580    -2.1370     2.6720 hc         1 F9N       0.042700
     37 H5           3.1230    -0.0020     1.4400 hc         1 F9N       0.045700
     38 H6           1.6760     0.8830     1.9530 hc         1 F9N       0.045700
     39 H7           8.6360     1.5680    -1.5280 h5         1 F9N       0.080800
     40 H8           5.4650     6.3750    -2.2150 ha         1 F9N       0.168000
     41 H9           5.4530     9.5840    -5.0320 ha         1 F9N       0.149000
     42 H10          2.2410     6.8560    -8.0180 h1         1 F9N       0.047700
     43 H11          3.8910     6.3880    -7.5870 h1         1 F9N       0.047700
     44 H12          2.2400     6.7720    -5.0040 ha         1 F9N       0.148000
     45 H13          2.1830     5.2450    -2.9610 hn         1 F9N       0.468800
     46 H14          1.7530     2.1320    -0.1610 h1         1 F9N       0.052700
     47 H15          1.6070     1.2960    -1.7130 h1         1 F9N       0.052700
     48 H16          1.8880    -0.8870    -0.5080 hc         1 F9N       0.061700
     49 H17         -1.5930    -1.2480     0.7230 hc         1 F9N       0.042950
     50 H18         -0.1460    -2.1330     0.2100 hc         1 F9N       0.042950
     51 H19          1.8910    -1.2480     3.1840 hc         1 F9N       0.042950
     52 H20          1.8900    -2.1330     1.6490 hc         1 F9N       0.042950
     53 H21          6.4160     0.5390    -0.7480 hn         1 F9N       0.312700
     54 H23          6.5270     8.3850    -3.1650 ha         1 F9N       0.140000
     55 H24          4.1440     8.9950    -8.5030 hn         1 F9N       0.455800
     56 H25          3.0040     7.4490   -10.2950 hc         1 F9N       0.056700
     57 H26          4.6540     6.9810    -9.8630 hc         1 F9N       0.056700
     58 H27          2.2320     5.1450    -9.8390 h1         1 F9N       0.035700
     59 H28          3.8820     4.6770    -9.4070 h1         1 F9N       0.035700
     60 H30          5.5750     4.8120   -10.8510 h1         1 F9N       0.032367
     61 H31          5.2780     4.6290   -12.5850 h1         1 F9N       0.032367
     62 H32          5.2860     6.2400   -11.8540 h1         1 F9N       0.032367
     63 H33          3.3080     3.6250   -12.9140 h1         1 F9N       0.032367
     64 H34          1.9950     3.7550   -11.7360 h1         1 F9N       0.032367
     65 H35          3.5270     3.0020   -11.2730 h1         1 F9N       0.032367
     66 N06          3.1810     5.3050    -3.0130 nu         1 F9N      -0.757300
     67 S02          3.0230     9.1060    -6.4700 sy         1 F9N       1.428200
@<TRIPOS>BOND
     1    23     4 2
     2    23     5 1
     3     4    22 1
     4     5    24 ar
     5     5    21 ar
     6    24    13 ar
     7    22    21 1
     8    66    13 1
     9    66    12 1
    10    13    14 ar
    11    21    15 ar
    12    14    15 ar
    13    32    67 2
    14    15    16 1
    15    12    11 ar
    16    12     6 ar
    17    11    10 ar
    18     6    25 ar
    19    17    16 1
    20    17    18 1
    21    10    67 1
    22    10     7 ar
    23    67     9 2
    24    67    26 1
    25    25     7 ar
    26    26     8 1
    27    19     1 1
    28    19     2 1
    29    18     1 1
    30    18     3 1
    31     3    20 1
    32     2    20 1
    33     8    27 1
    34    27    28 1
    35    28    29 1
    36    29    30 1
    37    29    31 1
    38     1    33 1
    39     1    34 1
    40     2    35 1
    41     2    36 1
    42     3    37 1
    43     3    38 1
    44     4    39 1
    45     6    40 1
    46     7    41 1
    47     8    42 1
    48     8    43 1
    49    11    44 1
    50    66    45 1
    51    17    46 1
    52    17    47 1
    53    18    48 1
    54    19    49 1
    55    19    50 1
    56    20    51 1
    57    20    52 1
    58    22    53 1
    59    25    54 1
    60    26    55 1
    61    27    56 1
    62    27    57 1
    63    28    58 1
    64    28    59 1
    65    30    60 1
    66    30    61 1
    67    30    62 1
    68    31    63 1
    69    31    64 1
    70    31    65 1
@<TRIPOS>SUBSTRUCTURE
     1 F9N         1 TEMP              0 ****  ****    0 ROOT
