@<TRIPOS>MOLECULE
F9N
   67    70     1     0     0
SMALL
bcc


@<TRIPOS>ATOM
      1 C13          0.0000     0.0000     0.0000 c3         1 F9N      -0.020400
      2 C15          0.0010    -1.2510     2.1640 c3         1 F9N      -0.025400
      3 C17          2.0400     0.0000     1.4420 c3         1 F9N      -0.020400
      4 C20          7.6460     1.9880    -1.6550 cc         1 F9N       0.264700
      5 C22          6.0590     3.3500    -2.2310 ca         1 F9N       0.599300
      6 C24          4.9920     6.9020    -3.0350 ca         1 F9N      -0.051000
      7 C26          4.9840     8.7010    -4.6160 ca         1 F9N      -0.014000
      8 C28          3.2910     7.0460    -8.2030 c3         1 F9N       0.225800
      9 O01          1.6400     8.7870    -6.4140 o          1 F9N      -0.590800
     10 C03          3.7860     8.2460    -5.1340 ca         1 F9N      -0.141500
     11 C04          3.1800     7.1260    -4.5990 ca         1 F9N      -0.038000
     12 C05          3.7850     6.4470    -3.5500 ca         1 F9N      -0.027400
     13 C07          3.9640     4.2690    -2.5280 ca         1 F9N       0.728900
     14 N08          3.3700     3.2480    -1.9220 nb         1 F9N      -0.763000
     15 C09          4.0770     2.2320    -1.4410 ca         1 F9N       0.736600
     16 O10          3.4630     1.1920    -0.8240 os         1 F9N      -0.435100
     17 C11          2.0390     1.2500    -0.7210 c3         1 F9N       0.218400
     18 C12          1.5290     0.0000     0.0000 c3         1 F9N      -0.061700
     19 C14         -0.5100    -1.2500     0.7210 c3         1 F9N      -0.022400
     20 C16          1.5300    -1.2500     2.1630 c3         1 F9N      -0.022400
     21 C18          5.4640     2.2540    -1.5850 ca         1 F9N      -0.599800
     22 N19          6.4990     1.4130    -1.2280 na         1 F9N       0.313700
     23 N21          7.3860     3.1230    -2.2420 nd         1 F9N      -0.607700
     24 N23          5.2740     4.3320    -2.6850 nb         1 F9N      -0.678000
     25 C25          5.5870     8.0280    -3.5670 ca         1 F9N      -0.111000
     26 N27          3.6000     8.4400    -7.8720 n7         1 F9N      -0.583100
     27 C29          3.6040     6.7900    -9.6790 c3         1 F9N      -0.047400
     28 C30          3.2820     5.3360   -10.0240 c3         1 F9N       0.157800
     29 N31          3.5830     5.0900   -11.4410 n3         1 F9N      -0.546600
     30 C32          5.0250     5.2000   -11.7000 c3         1 F9N       0.183100
     31 C33          3.0700     3.7820   -11.8690 c3         1 F9N       0.183100
     32 O34          3.5170    10.4370    -6.4250 o          1 F9N      -0.590800
     33 H1          -0.3600     0.8830     0.5140 hc         1 F9N       0.017950
     34 H2          -0.3600    -0.0020    -1.0220 hc         1 F9N       0.017950
     35 H3          -0.3590    -0.3650     2.6730 hc         1 F9N       0.014700
     36 H4          -0.3580    -2.1370     2.6720 hc         1 F9N       0.014700
     37 H5           3.1230    -0.0020     1.4400 hc         1 F9N       0.017950
     38 H6           1.6760     0.8830     1.9530 hc         1 F9N       0.017950
     39 H7           8.6360     1.5680    -1.5280 h5         1 F9N       0.029800
     40 H8           5.4650     6.3750    -2.2150 ha         1 F9N       0.140000
     41 H9           5.4530     9.5840    -5.0320 ha         1 F9N       0.122000
     42 H10          2.2410     6.8560    -8.0180 h1         1 F9N       0.014700
     43 H11          3.8910     6.3880    -7.5870 h1         1 F9N       0.014700
     44 H12          2.2400     6.7720    -5.0040 ha         1 F9N       0.124000
     45 H13          2.1830     5.2450    -2.9610 hn         1 F9N       0.294800
     46 H14          1.7530     2.1320    -0.1610 h1         1 F9N       0.015200
     47 H15          1.6070     1.2960    -1.7130 h1         1 F9N       0.015200
     48 H16          1.8880    -0.8870    -0.5080 hc         1 F9N       0.036700
     49 H17         -1.5930    -1.2480     0.7230 hc         1 F9N       0.014200
     50 H18         -0.1460    -2.1330     0.2100 hc         1 F9N       0.014200
     51 H19          1.8910    -1.2480     3.1840 hc         1 F9N       0.014200
     52 H20          1.8900    -2.1330     1.6490 hc         1 F9N       0.014200
     53 H21          6.4160     0.5390    -0.7480 hn         1 F9N       0.131700
     54 H23          6.5270     8.3850    -3.1650 ha         1 F9N       0.110000
     55 H24          4.1440     8.9950    -8.5030 hn         1 F9N       0.350800
     56 H25          3.0040     7.4490   -10.2950 hc         1 F9N       0.027200
     57 H26          4.6540     6.9810    -9.8630 hc         1 F9N       0.027200
     58 H27          2.2320     5.1450    -9.8390 h1         1 F9N       0.009700
     59 H28          3.8820     4.6770    -9.4070 h1         1 F9N       0.009700
     60 H30          5.5750     4.8120   -10.8510 h1         1 F9N       0.001033
     61 H31          5.2780     4.6290   -12.5850 h1         1 F9N       0.001033
     62 H32          5.2860     6.2400   -11.8540 h1         1 F9N       0.001033
     63 H33          3.3080     3.6250   -12.9140 h1         1 F9N       0.001033
     64 H34          1.9950     3.7550   -11.7360 h1         1 F9N       0.001033
     65 H35          3.5270     3.0020   -11.2730 h1         1 F9N       0.001033
     66 N06          3.1810     5.3050    -3.0130 nu         1 F9N      -0.291300
     67 S02          3.0230     9.1060    -6.4700 sy         1 F9N       1.043200
@<TRIPOS>BOND
     1     1    18 1   
     2     1    19 1   
     3     1    33 1   
     4     1    34 1   
     5     2    19 1   
     6     2    20 1   
     7     2    35 1   
     8     2    36 1   
     9     3    18 1   
    10     3    20 1   
    11     3    37 1   
    12     3    38 1   
    13     4    22 1   
    14     4    23 2   
    15     4    39 1   
    16     5    21 ar  
    17     5    23 1   
    18     5    24 ar  
    19     6    12 ar  
    20     6    25 ar  
    21     6    40 1   
    22     7    10 ar  
    23     7    25 ar  
    24     7    41 1   
    25     8    26 1   
    26     8    27 1   
    27     8    42 1   
    28     8    43 1   
    29     9    67 2   
    30    10    11 ar  
    31    10    67 1   
    32    11    12 ar  
    33    11    44 1   
    34    12    66 1   
    35    13    14 ar  
    36    13    24 ar  
    37    13    66 1   
    38    14    15 ar  
    39    15    16 1   
    40    15    21 ar  
    41    16    17 1   
    42    17    18 1   
    43    17    46 1   
    44    17    47 1   
    45    18    48 1   
    46    19    49 1   
    47    19    50 1   
    48    20    51 1   
    49    20    52 1   
    50    21    22 1   
    51    22    53 1   
    52    25    54 1   
    53    26    55 1   
    54    26    67 1   
    55    27    28 1   
    56    27    56 1   
    57    27    57 1   
    58    28    29 1   
    59    28    58 1   
    60    28    59 1   
    61    29    30 1   
    62    29    31 1   
    63    30    60 1   
    64    30    61 1   
    65    30    62 1   
    66    31    63 1   
    67    31    64 1   
    68    31    65 1   
    69    32    67 2   
    70    45    66 1   
@<TRIPOS>SUBSTRUCTURE
     1 F9N         1 TEMP              0 ****  ****    0 ROOT
