@<TRIPOS>MOLECULE
molecule
   23    23     1     0     0
SMALL
bcc


@<TRIPOS>ATOM
      1 C10          0.0000     0.0000     0.0000 c3         1 F9P      -0.067400
      2 C02          2.0340    -1.2300    -0.7090 c          1 F9P       0.671100
      3 C05          1.5300     0.0000     0.0000 c3         1 F9P      -0.135700
      4 C06          2.0390     0.0000     1.4430 c3         1 F9P      -0.067400
      5 C07          1.5280     1.2500     2.1650 c3         1 F9P      -0.081400
      6 C08         -0.0020     1.2500     2.1630 c3         1 F9P      -0.081400
      7 C09         -0.5110     1.2490     0.7200 c3         1 F9P      -0.081400
      8 N03          1.7080    -1.4440    -2.0000 ns         1 F9P      -0.474400
      9 O01          2.7300    -2.0280    -0.1190 o          1 F9P      -0.573100
     10 O04          2.1810    -2.6000    -2.6670 oh         1 F9P      -0.363100
     11 H1          -0.3600     0.0010    -1.0220 hc         1 F9P       0.053450
     12 H2          -0.3600    -0.8830     0.5140 hc         1 F9P       0.053450
     13 H3           1.8890     0.8870    -0.5070 hc         1 F9P       0.064700
     14 H4           1.6750    -0.8840     1.9530 hc         1 F9P       0.053450
     15 H5           3.1220     0.0020     1.4430 hc         1 F9P       0.053450
     16 H6           1.8890     2.1340     1.6520 hc         1 F9P       0.043200
     17 H7           1.8870     1.2470     3.1870 hc         1 F9P       0.043200
     18 H8          -0.3620     2.1370     2.6710 hc         1 F9P       0.044200
     19 H9          -0.3620     0.3650     2.6720 hc         1 F9P       0.044200
     20 H10         -1.5940     1.2460     0.7210 hc         1 F9P       0.043200
     21 H11         -0.1480     2.1330     0.2090 hc         1 F9P       0.043200
     22 H12          1.1630    -0.7680    -2.4970 hn         1 F9P       0.318500
     23 H13          2.1770    -2.4500    -3.5970 ho         1 F9P       0.395000
@<TRIPOS>BOND
     1     9     2 2
     2    10     8 1
     3     2     8 1
     4     2     3 1
     5     3     4 1
     6     3     1 1
     7     4     5 1
     8     1     7 1
     9     5     6 1
    10     7     6 1
    11     1    11 1
    12     1    12 1
    13     3    13 1
    14     4    14 1
    15     4    15 1
    16     5    16 1
    17     5    17 1
    18     6    18 1
    19     6    19 1
    20     7    20 1
    21     7    21 1
    22     8    22 1
    23    10    23 1
@<TRIPOS>SUBSTRUCTURE
     1 F9P         1 TEMP              0 ****  ****    0 ROOT
