@<TRIPOS>MOLECULE
F9S
   65    66     1     0     0
SMALL
bcc


@<TRIPOS>ATOM
      1 CAG          0.0000     0.0000     0.0000 ca         1 F9S      -0.098000
      2 CAE          1.3820     0.0000     0.0000 ca         1 F9S      -0.099000
      3 CAD          2.0730     0.0000     1.1970 ca         1 F9S      -0.105000
      4 CAF          1.3820    -0.0000     2.3940 ca         1 F9S      -0.099000
      5 CAH         -0.0000     0.0010     2.3940 ca         1 F9S      -0.098000
      6 CAZ         -0.6920     0.0000     1.1970 ca         1 F9S      -0.090300
      7 CAV         -2.1990    -0.0010     1.1970 c3         1 F9S       0.031900
      8 CAQ         -2.7080    -1.4440     1.1970 c3         1 F9S      -0.022400
      9 CAP         -4.2380    -1.4440     1.1970 c3         1 F9S      -0.036400
     10 CAU         -4.7470    -2.8870     1.1970 c3         1 F9S       0.213400
     11 OAY         -6.1760    -2.8880     1.1970 os         1 F9S      -0.418600
     12 CAT         -6.7570    -4.1930     1.1980 c3         1 F9S       0.213400
     13 CAO         -8.2830    -4.0730     1.1980 c3         1 F9S      -0.036400
     14 CAM         -8.9040    -5.4710     1.1970 c3         1 F9S      -0.024400
     15 CAL        -10.4300    -5.3510     1.1970 c3         1 F9S      -0.026400
     16 CAN        -11.0510    -6.7490     1.1980 c3         1 F9S      -0.029400
     17 CAS        -12.5760    -6.6290     1.1980 c3         1 F9S       0.139800
     18 NAX        -13.1730    -7.9710     1.1980 n7         1 F9S      -0.565200
     19 CAW        -14.6400    -7.8940     1.1980 c3         1 F9S       0.049800
     20 CBD        -15.2150    -9.2870     1.1980 c          1 F9S       0.622700
     21 OAC        -14.4770   -10.2490     1.1980 o          1 F9S      -0.541100
     22 CBB        -16.6710    -9.4800     1.1980 ca         1 F9S      -0.216600
     23 CAK        -17.2090   -10.7740     1.1980 ca         1 F9S       0.013000
     24 CAJ        -17.5270    -8.3720     1.2030 ca         1 F9S      -0.038000
     25 CAI        -18.8900    -8.5610     1.2030 ca         1 F9S      -0.190000
     26 CBA        -19.4130    -9.8500     1.1980 ca         1 F9S       0.166100
     27 OAB        -20.7580   -10.0350     1.1980 oh         1 F9S      -0.492100
     28 CBC        -18.5630   -10.9510     1.1980 ca         1 F9S      -0.150300
     29 CAR        -19.1380   -12.3440     1.1910 c3         1 F9S       0.294700
     30 OAA        -18.0740   -13.2980     1.1920 oh         1 F9S      -0.594800
     31 H1          -0.5410    -0.0000    -0.9380 ha         1 F9S       0.105000
     32 H2           1.9240     0.0000    -0.9380 ha         1 F9S       0.102000
     33 H3           3.1560    -0.0010     1.1970 ha         1 F9S       0.101000
     34 H4           1.9240     0.0000     3.3320 ha         1 F9S       0.102000
     35 H5          -0.5410     0.0010     3.3320 ha         1 F9S       0.105000
     36 H6          -2.5600     0.5100     0.3120 hc         1 F9S       0.019700
     37 H7          -2.5600     0.5100     2.0810 hc         1 F9S       0.019700
     38 H8          -2.3460    -1.9540     2.0810 hc         1 F9S       0.017200
     39 H9          -2.3470    -1.9540     0.3120 hc         1 F9S       0.017200
     40 H10         -4.5990    -0.9340     2.0820 hc         1 F9S       0.022700
     41 H11         -4.5990    -0.9340     0.3130 hc         1 F9S       0.022700
     42 H12         -4.3860    -3.3980     2.0820 h1         1 F9S      -0.010300
     43 H13         -4.3860    -3.3980     0.3130 h1         1 F9S      -0.010300
     44 H14         -6.4370    -4.7300     2.0820 h1         1 F9S      -0.010300
     45 H15         -6.4370    -4.7300     0.3130 h1         1 F9S      -0.010300
     46 H16         -8.6030    -3.5360     2.0820 hc         1 F9S       0.022700
     47 H17         -8.6030    -3.5360     0.3130 hc         1 F9S       0.022700
     48 H18         -8.5840    -6.0080     0.3130 hc         1 F9S       0.015700
     49 H19         -8.5840    -6.0080     2.0820 hc         1 F9S       0.015700
     50 H20        -10.7500    -4.8140     0.3130 hc         1 F9S       0.015200
     51 H21        -10.7490    -4.8130     2.0820 hc         1 F9S       0.015200
     52 H22        -10.7310    -7.2870     0.3130 hc         1 F9S       0.022200
     53 H23        -10.7310    -7.2860     2.0820 hc         1 F9S       0.022200
     54 H24        -12.8960    -6.0920     0.3130 h1         1 F9S       0.004200
     55 H25        -12.8960    -6.0910     2.0820 h1         1 F9S       0.004200
     56 H26        -12.8660    -8.4730     2.0080 hn         1 F9S       0.264800
     57 H28        -14.9750    -7.3650     2.0820 h1         1 F9S       0.025200
     58 H29        -14.9740    -7.3660     0.3130 h1         1 F9S       0.025200
     59 H30        -16.5500   -11.6340     1.1990 ha         1 F9S       0.147000
     60 H31        -17.1180    -7.3700     1.2080 ha         1 F9S       0.106000
     61 H32        -19.5560    -7.7060     1.2080 ha         1 F9S       0.114000
     62 H33        -21.1450    -9.5260     0.5040 ho         1 F9S       0.407000
     63 H34        -19.7520   -12.4860     2.0720 h1         1 F9S      -0.003800
     64 H35        -19.7440   -12.4800     0.3030 h1         1 F9S      -0.003800
     65 H36        -18.4340   -14.1700     1.1900 ho         1 F9S       0.394000
@<TRIPOS>BOND
     1     1     2 ar  
     2     1     6 ar  
     3     1    31 1   
     4     2     3 ar  
     5     2    32 1   
     6     3     4 ar  
     7     3    33 1   
     8     4     5 ar  
     9     4    34 1   
    10     5     6 ar  
    11     5    35 1   
    12     6     7 1   
    13     7     8 1   
    14     7    36 1   
    15     7    37 1   
    16     8     9 1   
    17     8    38 1   
    18     8    39 1   
    19     9    10 1   
    20     9    40 1   
    21     9    41 1   
    22    10    11 1   
    23    10    42 1   
    24    10    43 1   
    25    11    12 1   
    26    12    13 1   
    27    12    44 1   
    28    12    45 1   
    29    13    14 1   
    30    13    46 1   
    31    13    47 1   
    32    14    15 1   
    33    14    48 1   
    34    14    49 1   
    35    15    16 1   
    36    15    50 1   
    37    15    51 1   
    38    16    17 1   
    39    16    52 1   
    40    16    53 1   
    41    17    18 1   
    42    17    54 1   
    43    17    55 1   
    44    18    19 1   
    45    18    56 1   
    46    19    20 1   
    47    19    57 1   
    48    19    58 1   
    49    20    21 2   
    50    20    22 1   
    51    22    23 ar  
    52    22    24 ar  
    53    23    28 ar  
    54    23    59 1   
    55    24    25 ar  
    56    24    60 1   
    57    25    26 ar  
    58    25    61 1   
    59    26    27 1   
    60    26    28 ar  
    61    27    62 1   
    62    28    29 1   
    63    29    30 1   
    64    29    63 1   
    65    29    64 1   
    66    30    65 1   
@<TRIPOS>SUBSTRUCTURE
     1 F9S         1 TEMP              0 ****  ****    0 ROOT
