@<TRIPOS>MOLECULE
molecule
   65    66     1     0     0
SMALL
bcc


@<TRIPOS>ATOM
      1 CAG          0.0000     0.0000     0.0000 ca         1 F9S      -0.125000
      2 CAE          1.3820     0.0000     0.0000 ca         1 F9S      -0.126000
      3 CAD          2.0730     0.0000     1.1970 ca         1 F9S      -0.132000
      4 CAF          1.3820    -0.0000     2.3940 ca         1 F9S      -0.126000
      5 CAH         -0.0000     0.0010     2.3940 ca         1 F9S      -0.125000
      6 CAZ         -0.6920     0.0000     1.1970 ca         1 F9S      -0.082300
      7 CAV         -2.1990    -0.0010     1.1970 c3         1 F9S      -0.034100
      8 CAQ         -2.7080    -1.4440     1.1970 c3         1 F9S      -0.077400
      9 CAP         -4.2380    -1.4440     1.1970 c3         1 F9S      -0.082400
     10 CAU         -4.7470    -2.8870     1.1970 c3         1 F9S       0.139400
     11 OAY         -6.1760    -2.8880     1.1970 os         1 F9S      -0.434600
     12 CAT         -6.7570    -4.1930     1.1980 c3         1 F9S       0.139400
     13 CAO         -8.2830    -4.0730     1.1980 c3         1 F9S      -0.081400
     14 CAM         -8.9040    -5.4710     1.1970 c3         1 F9S      -0.080400
     15 CAL        -10.4300    -5.3510     1.1970 c3         1 F9S      -0.080400
     16 CAN        -11.0510    -6.7490     1.1980 c3         1 F9S      -0.081400
     17 CAS        -12.5760    -6.6290     1.1980 c3         1 F9S       0.155800
     18 NAX        -13.1730    -7.9710     1.1980 n7         1 F9S      -0.802200
     19 CAW        -14.6400    -7.8940     1.1980 c3         1 F9S       0.061800
     20 CBD        -15.2150    -9.2870     1.1980 c          1 F9S       0.574700
     21 OAC        -14.4770   -10.2490     1.1980 o          1 F9S      -0.506100
     22 CBB        -16.6710    -9.4800     1.1980 ca         1 F9S      -0.202600
     23 CAK        -17.2090   -10.7740     1.1980 ca         1 F9S      -0.021000
     24 CAJ        -17.5270    -8.3720     1.2030 ca         1 F9S      -0.069000
     25 CAI        -18.8900    -8.5610     1.2030 ca         1 F9S      -0.204000
     26 CBA        -19.4130    -9.8500     1.1980 ca         1 F9S       0.145100
     27 OAB        -20.7580   -10.0350     1.1980 oh         1 F9S      -0.513100
     28 CBC        -18.5630   -10.9510     1.1980 ca         1 F9S      -0.120300
     29 CAR        -19.1380   -12.3440     1.1910 c3         1 F9S       0.195700
     30 OAA        -18.0740   -13.2980     1.1920 oh         1 F9S      -0.612800
     31 H1          -0.5410    -0.0000    -0.9380 ha         1 F9S       0.129500
     32 H2           1.9240     0.0000    -0.9380 ha         1 F9S       0.129000
     33 H3           3.1560    -0.0010     1.1970 ha         1 F9S       0.128000
     34 H4           1.9240     0.0000     3.3320 ha         1 F9S       0.129000
     35 H5          -0.5410     0.0010     3.3320 ha         1 F9S       0.129500
     36 H6          -2.5600     0.5100     0.3120 hc         1 F9S       0.049700
     37 H7          -2.5600     0.5100     2.0810 hc         1 F9S       0.049700
     38 H8          -2.3460    -1.9540     2.0810 hc         1 F9S       0.045700
     39 H9          -2.3470    -1.9540     0.3120 hc         1 F9S       0.045700
     40 H10         -4.5990    -0.9340     2.0820 hc         1 F9S       0.052700
     41 H11         -4.5990    -0.9340     0.3130 hc         1 F9S       0.052700
     42 H12         -4.3860    -3.3980     2.0820 h1         1 F9S       0.022700
     43 H13         -4.3860    -3.3980     0.3130 h1         1 F9S       0.022700
     44 H14         -6.4370    -4.7300     2.0820 h1         1 F9S       0.022700
     45 H15         -6.4370    -4.7300     0.3130 h1         1 F9S       0.022700
     46 H16         -8.6030    -3.5360     2.0820 hc         1 F9S       0.053200
     47 H17         -8.6030    -3.5360     0.3130 hc         1 F9S       0.053200
     48 H18         -8.5840    -6.0080     0.3130 hc         1 F9S       0.043700
     49 H19         -8.5840    -6.0080     2.0820 hc         1 F9S       0.043700
     50 H20        -10.7500    -4.8140     0.3130 hc         1 F9S       0.042200
     51 H21        -10.7490    -4.8130     2.0820 hc         1 F9S       0.042200
     52 H22        -10.7310    -7.2870     0.3130 hc         1 F9S       0.051200
     53 H23        -10.7310    -7.2860     2.0820 hc         1 F9S       0.051200
     54 H24        -12.8960    -6.0920     0.3130 h1         1 F9S       0.029700
     55 H25        -12.8960    -6.0910     2.0820 h1         1 F9S       0.029700
     56 H26        -12.8660    -8.4730     2.0080 hn         1 F9S       0.365800
     57 H28        -14.9750    -7.3650     2.0820 h1         1 F9S       0.052700
     58 H29        -14.9740    -7.3660     0.3130 h1         1 F9S       0.052700
     59 H30        -16.5500   -11.6340     1.1990 ha         1 F9S       0.181000
     60 H31        -17.1180    -7.3700     1.2080 ha         1 F9S       0.134000
     61 H32        -19.5560    -7.7060     1.2080 ha         1 F9S       0.139000
     62 H33        -21.1450    -9.5260     0.5040 ho         1 F9S       0.426000
     63 H34        -19.7520   -12.4860     2.0720 h1         1 F9S       0.037700
     64 H35        -19.7440   -12.4800     0.3030 h1         1 F9S       0.037700
     65 H36        -18.4340   -14.1700     1.1900 ho         1 F9S       0.408000
@<TRIPOS>BOND
     1    27    26 1
     2    26    25 ar
     3    26    28 ar
     4    25    24 ar
     5    29    30 1
     6    29    28 1
     7    28    23 ar
     8    24    22 ar
     9    23    22 ar
    10    22    20 1
    11    20    21 2
    12    20    19 1
    13    19    18 1
    14    18    17 1
    15    17    16 1
    16    16    15 1
    17     7     6 1
    18     7     8 1
    19     1     6 ar
    20     1     2 ar
    21    15    14 1
    22     6     5 ar
    23     2     3 ar
    24     8     9 1
    25    14    13 1
    26     5     4 ar
    27     3     4 ar
    28     9    10 1
    29    11    10 1
    30    11    12 1
    31    13    12 1
    32     1    31 1
    33     2    32 1
    34     3    33 1
    35     4    34 1
    36     5    35 1
    37     7    36 1
    38     7    37 1
    39     8    38 1
    40     8    39 1
    41     9    40 1
    42     9    41 1
    43    10    42 1
    44    10    43 1
    45    12    44 1
    46    12    45 1
    47    13    46 1
    48    13    47 1
    49    14    48 1
    50    14    49 1
    51    15    50 1
    52    15    51 1
    53    16    52 1
    54    16    53 1
    55    17    54 1
    56    17    55 1
    57    18    56 1
    58    19    57 1
    59    19    58 1
    60    23    59 1
    61    24    60 1
    62    25    61 1
    63    27    62 1
    64    29    63 1
    65    29    64 1
    66    30    65 1
@<TRIPOS>SUBSTRUCTURE
     1 F9S         1 TEMP              0 ****  ****    0 ROOT
