@<TRIPOS>MOLECULE
molecule
   22    22     1     0     0
SMALL
bcc


@<TRIPOS>ATOM
      1 CAJ          0.0000     0.0000     0.0000 c          1 F9V       0.913600
      2 OAP          1.2080     0.0000     0.0000 o          1 F9V      -0.871800
      3 CAK         -0.7530     0.0000     1.3050 c3         1 F9V      -0.152400
      4 CAL          0.2410     0.0020     2.4680 c3         1 F9V      -0.130400
      5 CAM          1.0240    -1.2860     2.4610 c          1 F9V       0.920600
      6 OAO          1.9600    -1.5080     3.3970 o          1 F9V      -0.855800
      7 OAN          0.8090    -2.1190     1.6130 o          1 F9V      -0.855800
      8 CAU         -0.5090     0.1260     3.7690 ca         1 F9V       0.024700
      9 CAT         -0.2670     1.1990     4.6070 ca         1 F9V      -0.127000
     10 CAS         -0.9540     1.3130     5.8000 ca         1 F9V      -0.149000
     11 CAR         -1.8840     0.3550     6.1570 ca         1 F9V      -0.190000
     12 CAQ         -2.1270    -0.7180     5.3190 ca         1 F9V      -0.149000
     13 CAV         -1.4430    -0.8300     4.1230 ca         1 F9V      -0.127000
     14 OAM         -0.6710     0.0050    -1.1620 o          1 F9V      -0.871800
     15 HAK1        -1.3770     0.8840     1.3620 hc         1 F9V       0.014700
     16 HAK2        -1.3750    -0.8850     1.3630 hc         1 F9V       0.014700
     17 HAL          0.9200     0.8390     2.3620 hc         1 F9V       0.059700
     18 HAT          0.4620     1.9510     4.3280 ha         1 F9V       0.135000
     19 HAV         -1.6330    -1.6700     3.4670 ha         1 F9V       0.135000
     20 HAS         -0.7640     2.1530     6.4570 ha         1 F9V       0.090000
     21 HAR         -2.4210     0.4430     7.0940 ha         1 F9V       0.084000
     22 HAQ         -2.8570    -1.4680     5.5970 ha         1 F9V       0.090000
@<TRIPOS>BOND
     1     1     2 1
     2     1     3 1
     3     1    14 1
     4     3     4 1
     5     4     5 1
     6     4     8 1
     7     5     6 1
     8     5     7 1
     9     8     9 ar
    10     8    13 ar
    11     9    10 ar
    12    10    11 ar
    13    11    12 ar
    14    12    13 ar
    15     3    15 1
    16     3    16 1
    17     4    17 1
    18     9    18 1
    19    13    19 1
    20    10    20 1
    21    11    21 1
    22    12    22 1
@<TRIPOS>SUBSTRUCTURE
     1 F9V         1 TEMP              0 ****  ****    0 ROOT
