@<TRIPOS>MOLECULE
F9V
   22    22     1     0     0
SMALL
bcc


@<TRIPOS>ATOM
      1 CAJ        -0.0230    1.2100    0.7670 c         1 F9V      0.898600
      2 OAP         0.8260    1.9510    1.3540 o         1 F9V     -0.883300
      3 CAK        -0.2360   -0.2450    1.1880 c3        1 F9V     -0.150400
      4 CAL         0.3620   -0.6450    2.5280 c3        1 F9V     -0.135400
      5 CAM         0.6250   -2.1680    2.5820 c         1 F9V      0.908600
      6 OAO         1.8000   -2.5580    2.8580 o         1 F9V     -0.871800
      7 OAN        -0.3130   -2.9930    2.3560 o         1 F9V     -0.871800
      8 CAU        -0.4810   -0.1790    3.6710 ca        1 F9V      0.007700
      9 CAT        -0.4130    1.1700    4.0640 ca        1 F9V     -0.133000
     10 CAS        -1.1560    1.6320    5.1470 ca        1 F9V     -0.164000
     11 CAR        -1.9850    0.7610    5.8560 ca        1 F9V     -0.188000
     12 CAQ        -2.0720   -0.5730    5.4630 ca        1 F9V     -0.164000
     13 CAV        -1.3310   -1.0400    4.3790 ca        1 F9V     -0.133000
     14 OAM        -0.7120    1.6450   -0.2100 o         1 F9V     -0.883300
     15 HAK1       -1.3350   -0.4630    1.1840 hc        1 F9V      0.032200
     16 HAK2        0.2290   -0.8870    0.3940 hc        1 F9V      0.032200
     17 HAL         1.3650   -0.1310    2.6130 hc        1 F9V      0.074700
     18 HAT         0.2200    1.8530    3.4640 ha        1 F9V      0.182000
     19 HAV        -1.4010   -2.0950    4.0560 ha        1 F9V      0.182000
     20 HAS        -1.0950    2.6890    5.4400 ha        1 F9V      0.090000
     21 HAR        -2.5680    1.1260    6.7120 ha        1 F9V      0.080000
     22 HAQ        -2.7310   -1.2620    6.0100 ha        1 F9V      0.090000
@<TRIPOS>BOND
     1    1    2 1   
     2    1    3 1   
     3    1   14 1   
     4    3    4 1   
     5    3   15 1   
     6    3   16 1   
     7    4    5 1   
     8    4    8 1   
     9    4   17 1   
    10    5    6 1   
    11    5    7 1   
    12    8    9 ar  
    13    8   13 ar  
    14    9   10 ar  
    15    9   18 1   
    16   10   11 ar  
    17   10   20 1   
    18   11   12 ar  
    19   11   21 1   
    20   12   13 ar  
    21   12   22 1   
    22   13   19 1   
@<TRIPOS>SUBSTRUCTURE
     1 F9V         1 TEMP              0 ****  ****    0 ROOT
