@<TRIPOS>MOLECULE
molecule
   34    35     1     0     0
SMALL
bcc


@<TRIPOS>ATOM
      1 CAJ          0.0000     0.0000     0.0000 ca         1 F9W      -0.251000
      2 CAK          1.3840     0.0000     0.0000 ca         1 F9W       0.196400
      3 FAH          2.0590     0.0000    -1.1700 f          1 F9W      -0.131900
      4 CAF          2.0760     0.0000     1.1990 ca         1 F9W      -0.252000
      5 CAQ          1.3850     0.0010     2.3990 ca         1 F9W       0.196400
      6 FAA          2.0620     0.0010     3.5680 f          1 F9W      -0.131900
      7 CAP          0.0010    -0.0000     2.4010 ca         1 F9W      -0.251000
      8 CAI         -0.6930     0.0000     1.2010 ca         1 F9W       0.194100
      9 OAG         -2.0520     0.0010     1.2020 os         1 F9W      -0.307900
     10 CAB         -2.7020     0.1200    -0.0650 c3         1 F9W       0.177300
     11 CAL         -2.8030    -1.2350    -0.7030 c2         1 F9W      -0.158200
     12 CAC         -4.1000     0.7110     0.1350 c3         1 F9W       0.139100
     13 OAR         -4.7850    -0.0120     1.1590 oh         1 F9W      -0.585800
     14 CAD         -4.8710     0.5900    -1.1850 c3         1 F9W       0.120100
     15 OAT         -4.0980     1.1560    -2.2470 oh         1 F9W      -0.581800
     16 CAE         -5.1270    -0.8930    -1.4630 c3         1 F9W       0.191300
     17 OAS         -5.6220    -1.0470    -2.7940 oh         1 F9W      -0.591800
     18 CAM         -3.8570    -1.6720    -1.3140 c2         1 F9W      -0.102400
     19 CAN         -3.8010    -3.0520    -1.9150 c3         1 F9W       0.182600
     20 OAO         -2.5160    -3.6270    -1.6680 oh         1 F9W      -0.614800
     21 H1          -0.5420     0.0000    -0.9380 ha         1 F9W       0.163000
     22 H2           3.1590    -0.0000     1.1990 ha         1 F9W       0.159000
     23 H3          -0.5400    -0.0000     3.3400 ha         1 F9W       0.163000
     24 H4          -2.1270     0.7760    -0.7080 h1         1 F9W       0.079700
     25 H5          -1.9410    -1.8880    -0.6460 ha         1 F9W       0.166000
     26 H6          -4.0160     1.7550     0.4130 h1         1 F9W       0.044700
     27 H7          -5.1070     0.5910     1.8080 ho         1 F9W       0.407000
     28 H8          -5.8170     1.1110    -1.1010 h1         1 F9W       0.039700
     29 H9          -4.5260     1.9330    -2.5670 ho         1 F9W       0.405000
     30 H10         -5.8590    -1.2660    -0.7580 h1         1 F9W       0.060700
     31 H11         -6.5560    -1.1780    -2.7690 ho         1 F9W       0.397000
     32 H12         -3.9690    -2.9880    -2.9840 h1         1 F9W       0.036700
     33 H13         -4.5670    -3.6730    -1.4660 h1         1 F9W       0.036700
     34 H14         -2.4830    -4.4930    -2.0390 ho         1 F9W       0.406000
@<TRIPOS>BOND
     1    17    16 1
     2    19    20 1
     3    19    18 1
     4    18    16 1
     5    18    11 2
     6    16    14 1
     7    11    10 1
     8    15    14 1
     9    12    14 1
    10    12    10 1
    11    12    13 1
    12    10     9 1
    13     9     8 1
    14     1     8 ar
    15     1     2 ar
    16     8     7 ar
    17     3     2 1
    18     2     4 ar
    19     7     5 ar
    20     4     5 ar
    21     5     6 1
    22     1    21 1
    23     4    22 1
    24     7    23 1
    25    10    24 1
    26    11    25 1
    27    12    26 1
    28    13    27 1
    29    14    28 1
    30    15    29 1
    31    16    30 1
    32    17    31 1
    33    19    32 1
    34    19    33 1
    35    20    34 1
@<TRIPOS>SUBSTRUCTURE
     1 F9W         1 TEMP              0 ****  ****    0 ROOT
