@<TRIPOS>MOLECULE
molecule
   17    18     1     0     0
SMALL
bcc


@<TRIPOS>ATOM
      1 CAB         -0.7120     0.0010    -1.2420 cg         1 F9Y       0.243800
      2 CAC          0.0000     0.0000     0.0000 ca         1 F9Y      -0.007000
      3 CAD          1.4030     0.0000     0.0000 ca         1 F9Y      -0.137000
      4 CAE          2.0910     0.0000     1.1760 ca         1 F9Y      -0.088000
      5 CAF          1.3990    -0.0010     2.3910 ca         1 F9Y      -0.098800
      6 CAG         -0.0100    -0.0010     2.4040 ca         1 F9Y      -0.046200
      7 CAH         -0.7030     0.0050     1.2030 ca         1 F9Y      -0.100000
      8 CAJ          0.6950    -0.0020     4.5360 cd         1 F9Y      -0.088100
      9 CAK          1.8150    -0.0020     3.7930 cc         1 F9Y      -0.229200
     10 NAA         -1.2760    -0.0180    -2.2280 n1         1 F9Y      -0.369800
     11 NAI         -0.4040    -0.0010     3.7240 na         1 F9Y      -0.160400
     12 HAD          1.9290    -0.3040    -0.8970 ha         1 F9Y       0.141000
     13 HAE          3.1360     0.1550     0.9330 ha         1 F9Y       0.142000
     14 HAH         -1.7810    -0.1060     1.1970 ha         1 F9Y       0.137000
     15 HAJ          0.9330     0.1430     5.5830 h4         1 F9Y       0.188000
     16 HAK          2.8390     0.3500     3.7890 ha         1 F9Y       0.171000
     17 HAI         -1.3480    -0.0480     4.0540 hn         1 F9Y       0.301700
@<TRIPOS>BOND
     1    10     1 3
     2     1     2 1
     3     2     3 ar
     4     2     7 ar
     5     3     4 ar
     6     7     6 ar
     7     4     5 ar
     8     6     5 ar
     9     6    11 1
    10     5     9 1
    11    11     8 1
    12     9     8 2
    13     3    12 1
    14     4    13 1
    15     7    14 1
    16     8    15 1
    17     9    16 1
    18    11    17 1
@<TRIPOS>SUBSTRUCTURE
     1 F9Y         1 TEMP              0 ****  ****    0 ROOT
