@<TRIPOS>MOLECULE
F9Y
   17    18     1     0     0
SMALL
bcc


@<TRIPOS>ATOM
      1 CAB         -0.7120     0.0010    -1.2420 cg         1 F9Y       0.237800
      2 CAC          0.0000     0.0000     0.0000 ca         1 F9Y       0.036000
      3 CAD          1.4030     0.0000     0.0000 ca         1 F9Y      -0.127000
      4 CAE          2.0910     0.0000     1.1760 ca         1 F9Y      -0.044000
      5 CAF          1.3990    -0.0010     2.3910 ca         1 F9Y      -0.105800
      6 CAG         -0.0100    -0.0010     2.4040 ca         1 F9Y      -0.237200
      7 CAH         -0.7030     0.0050     1.2030 ca         1 F9Y      -0.066000
      8 CAJ          0.6950    -0.0020     4.5360 cc         1 F9Y      -0.254100
      9 CAK          1.8150    -0.0020     3.7930 cd         1 F9Y      -0.194200
     10 NAA         -1.2760    -0.0180    -2.2280 n1         1 F9Y      -0.392800
     11 NAI         -0.4040    -0.0010     3.7240 na         1 F9Y       0.393600
     12 HAD          1.9290    -0.3040    -0.8970 ha         1 F9Y       0.115000
     13 HAE          3.1360     0.1550     0.9330 ha         1 F9Y       0.111000
     14 HAH         -1.7810    -0.1060     1.1970 ha         1 F9Y       0.109000
     15 HAJ          0.9330     0.1430     5.5830 h4         1 F9Y       0.159000
     16 HAK          2.8390     0.3500     3.7890 ha         1 F9Y       0.146000
     17 HAI         -1.3480    -0.0480     4.0540 hn         1 F9Y       0.113700
@<TRIPOS>BOND
     1     1     2 1   
     2     1    10 3   
     3     2     3 ar  
     4     2     7 ar  
     5     3     4 ar  
     6     3    12 1   
     7     4     5 ar  
     8     4    13 1   
     9     5     6 ar  
    10     5     9 1   
    11     6     7 ar  
    12     6    11 1   
    13     7    14 1   
    14     8     9 2   
    15     8    11 1   
    16     8    15 1   
    17     9    16 1   
    18    11    17 1   
@<TRIPOS>SUBSTRUCTURE
     1 F9Y         1 TEMP              0 ****  ****    0 ROOT
