@<TRIPOS>MOLECULE
F9Z
   48    51     1     0     0
SMALL
bcc


@<TRIPOS>ATOM
      1 C4           0.0000     0.0000     0.0000 c3         1 F9Z       0.024600
      2 C14         -2.4230    -5.4360    -1.0320 ca         1 F9Z      -0.060000
      3 C5          -0.5030     0.0600    -1.4190 ca         1 F9Z      -0.176300
      4 C6          -0.1630     1.1330    -2.2300 ca         1 F9Z       0.236100
      5 C11         -2.9190    -3.0370    -2.8500 cc         1 F9Z      -0.320200
      6 C7          -0.6200     1.2020    -3.5410 ca         1 F9Z      -0.322000
      7 C8          -1.4210     0.1980    -4.0520 ca         1 F9Z       0.272100
      8 C9          -1.7690    -0.8880    -3.2390 ca         1 F9Z      -0.313600
      9 C10         -2.6210    -1.9780    -3.7430 c          1 F9Z       0.647900
     10 C12         -2.4200    -3.0080    -1.5860 cd         1 F9Z       0.203900
     11 C13         -2.7380    -4.1240    -0.6730 ca         1 F9Z      -0.070800
     12 N1           1.5280     1.1890     2.1420 n3         1 F9Z      -0.539600
     13 C3           1.5320     0.0000     0.0000 c3         1 F9Z      -0.033400
     14 C1           2.1040     1.2950     3.4890 c3         1 F9Z       0.187100
     15 C2           2.0360     0.0000     1.4450 c3         1 F9Z       0.155800
     16 O1           0.6230     2.1240    -1.7380 oh         1 F9Z      -0.466100
     17 O2          -1.8690     0.2650    -5.3310 oh         1 F9Z      -0.461100
     18 O3          -3.0500    -1.9720    -4.8840 o          1 F9Z      -0.567100
     19 C15         -2.7280    -6.4740    -0.1770 ca         1 F9Z      -0.106000
     20 C16         -3.3440    -6.2180     1.0360 ca         1 F9Z      -0.074000
     21 C17         -3.6580    -4.9220     1.4000 ca         1 F9Z      -0.104000
     22 C18         -3.3540    -3.8710     0.5560 ca         1 F9Z      -0.019600
     23 Cl1         -3.7500    -2.2440     1.0150 cl         1 F9Z       0.012600
     24 O4          -1.6370    -2.0130    -1.1410 os         1 F9Z      -0.164200
     25 C19         -1.3010    -0.9590    -1.9150 ca         1 F9Z       0.235100
     26 C20         -0.5030     1.2220     0.7740 c3         1 F9Z       0.181100
     27 O5          -1.9310     1.1990     0.8250 oh         1 F9Z      -0.584800
     28 C21          0.0610     1.1870     2.1960 c3         1 F9Z       0.120800
     29 H1          -0.3600    -0.9030     0.4790 hc         1 F9Z       0.046700
     30 H3          -3.6410    -3.7940    -3.1310 ha         1 F9Z       0.146000
     31 H4          -0.3470     2.0450    -4.1640 ha         1 F9Z       0.124000
     32 H6           1.8920    -0.8860    -0.5080 hc         1 F9Z       0.031200
     33 H7           1.8920     0.8860    -0.5080 hc         1 F9Z       0.031200
     34 H8           1.7760     0.4540     4.0890 h1         1 F9Z      -0.000300
     35 H9           1.7740     2.2180     3.9510 h1         1 F9Z      -0.000300
     36 H10          3.1850     1.2910     3.4210 h1         1 F9Z      -0.000300
     37 H11          3.1190     0.0170     1.4470 h1         1 F9Z       0.008700
     38 H12          1.6830    -0.8910     1.9490 h1         1 F9Z       0.008700
     39 H13          0.8590     2.7130    -2.4350 ho         1 F9Z       0.404000
     40 H14         -1.1340     0.3120    -5.9200 ho         1 F9Z       0.404000
     41 H15         -2.4840    -7.4920    -0.4560 ha         1 F9Z       0.109000
     42 H16         -3.5830    -7.0380     1.7030 ha         1 F9Z       0.107000
     43 H17         -4.1380    -4.7290     2.3520 ha         1 F9Z       0.118000
     44 H18         -0.1690     2.1250     0.2770 h1         1 F9Z       0.033700
     45 H19         -2.2520     2.0630     1.0260 ho         1 F9Z       0.388000
     46 H20         -0.2800     2.0600     2.7390 h1         1 F9Z       0.014700
     47 H21         -0.2800     0.2880     2.6950 h1         1 F9Z       0.014700
     48 H2          -1.9410    -5.6390    -1.9810 ha         1 F9Z       0.116000
@<TRIPOS>BOND
     1     1     3 1   
     2     1    13 1   
     3     1    26 1   
     4     1    29 1   
     5     2    11 ar  
     6     2    19 ar  
     7     2    48 1   
     8     3     4 ar  
     9     3    25 ar  
    10     4     6 ar  
    11     4    16 1   
    12     5     9 1   
    13     5    10 2   
    14     5    30 1   
    15     6     7 ar  
    16     6    31 1   
    17     7     8 ar  
    18     7    17 1   
    19     8     9 1   
    20     8    25 ar  
    21     9    18 2   
    22    10    11 1   
    23    10    24 1   
    24    11    22 ar  
    25    12    14 1   
    26    12    15 1   
    27    12    28 1   
    28    13    15 1   
    29    13    32 1   
    30    13    33 1   
    31    14    34 1   
    32    14    35 1   
    33    14    36 1   
    34    15    37 1   
    35    15    38 1   
    36    16    39 1   
    37    17    40 1   
    38    19    20 ar  
    39    19    41 1   
    40    20    21 ar  
    41    20    42 1   
    42    21    22 ar  
    43    21    43 1   
    44    22    23 1   
    45    24    25 1   
    46    26    27 1   
    47    26    28 1   
    48    26    44 1   
    49    27    45 1   
    50    28    46 1   
    51    28    47 1   
@<TRIPOS>SUBSTRUCTURE
     1 F9Z         1 TEMP              0 ****  ****    0 ROOT
