@<TRIPOS>MOLECULE
FA
   50    52     1     0     0
SMALL
bcc


@<TRIPOS>ATOM
      1 C2          0.0480   -0.0450   -0.3620 cc        1 FA       0.845100
      2 C4          0.1710   -1.2760    1.6750 c         1 FA       0.618000
      3 C4A         1.3530   -0.4400    2.0800 ca        1 FA       0.193500
      4 C6          3.0390    0.1140    3.5560 ca        1 FA       0.260300
      5 C7          3.4790    1.1390    2.6600 ca        1 FA       0.353900
      6 C8A         1.7990    0.5960    1.1820 ca        1 FA       0.540900
      7 C9          3.8040   -0.0930    4.8450 c3        1 FA       0.148500
      8 C14         3.5850   -0.1090    7.2740 ca        1 FA       0.141600
      9 C13         2.7580   -0.2580    8.4150 ca        1 FA      -0.197000
     10 C12         3.3170   -0.3530    9.6810 ca        1 FA      -0.056500
     11 C11         4.7070   -0.3080    9.8600 ca        1 FA      -0.161600
     12 C16         5.5290   -0.1860    8.7390 ca        1 FA      -0.056500
     13 C15         4.9830   -0.0940    7.4620 ca        1 FA      -0.197000
     14 C           5.2340   -0.4090   11.2560 c         1 FA       0.647700
     15 CA1         6.9420    0.3790   12.8610 c3        1 FA      -0.069300
     16 CT1         7.6810    1.7750   12.9380 c         1 FA       0.914600
     17 CB1         7.9030   -0.6720   13.4270 c3        1 FA      -0.076400
     18 CG1         7.2280   -1.9940   13.7420 c3        1 FA      -0.188400
     19 CD1         7.8610   -3.1550   13.0420 c         1 FA       0.637100
     20 N1          1.1100    0.8260   -0.0130 na        1 FA      -0.832900
     21 NA2        -0.4880    0.1210   -1.6650 nh        1 FA      -0.888800
     22 N3         -0.4270   -1.0010    0.4300 nd        1 FA      -0.739100
     23 O4         -0.2870   -2.1740    2.3910 o         1 FA      -0.494100
     24 N5          1.9810   -0.6640    3.2590 nb        1 FA      -0.551000
     25 N8          2.8860    1.3850    1.4890 nb        1 FA      -0.681000
     26 N10         2.9830    0.0990    6.0170 nh        1 FA      -0.724600
     27 NP1         6.4950    0.0850   11.5110 n         1 FA      -0.519900
     28 O           4.5530   -0.9930   12.1330 o         1 FA      -0.647100
     29 O21         7.9310    2.3780   11.8590 o         1 FA      -0.821300
     30 O11         7.9640    2.1810   14.0930 o         1 FA      -0.821300
     31 OE1         8.2290   -4.2220   13.5440 o         1 FA      -0.541000
     32 OE2         8.0590   -3.1050   11.6900 oh        1 FA      -0.603100
     33 H7          4.3440    1.7810    2.9100 h4        1 FA       0.047100
     34 H91         4.6390    0.6660    4.8800 h1        1 FA       0.056200
     35 H92         4.2760   -1.1220    4.8120 h1        1 FA       0.056200
     36 H13         1.6630   -0.2920    8.3050 ha        1 FA       0.128000
     37 H12         2.6710   -0.4740   10.5670 ha        1 FA       0.151000
     38 H16         6.6270   -0.1680    8.8420 ha        1 FA       0.151000
     39 H15         5.6670   -0.0030    6.6060 ha        1 FA       0.128000
     40 HA1         6.0460    0.4400   13.5450 h1        1 FA       0.064700
     41 HB11        8.7640   -0.8210   12.7240 hc        1 FA       0.063700
     42 HB12        8.3230   -0.2310   14.3720 hc        1 FA       0.063700
     43 HG11        7.2650   -2.1910   14.8460 hc        1 FA       0.088700
     44 HG12        6.1420   -1.9630   13.4420 hc        1 FA       0.088700
     45 HN1         1.4880    1.4680   -0.6740 hn        1 FA       0.464800
     46 HA21       -0.6170    1.0680   -1.9470 hn        1 FA       0.417800
     47 HA22       -1.2820   -0.4590   -1.8480 hn        1 FA       0.417800
     48 H10         2.0810   -0.3300    5.9460 hn        1 FA       0.408800
     49 HNP         6.8750    0.7330   10.8420 hn        1 FA       0.327500
     50 HP12        7.7520   -2.2500   11.3510 ho        1 FA       0.442000
@<TRIPOS>BOND
     1    1   20 1
     2    1   21 1
     3    1   22 2
     4    2    3 1
     5    2   22 1
     6    2   23 2
     7    3    6 ar
     8    3   24 ar
     9    4    5 ar
    10    4    7 1
    11    4   24 ar
    12    5   25 ar
    13    5   33 1
    14    6   20 1
    15    6   25 ar
    16    7   26 1
    17    7   34 1
    18    7   35 1
    19    8    9 ar
    20    8   13 ar
    21    8   26 1
    22    9   10 ar
    23    9   36 1
    24   10   11 ar
    25   10   37 1
    26   11   12 ar
    27   11   14 1
    28   12   13 ar
    29   12   38 1
    30   13   39 1
    31   14   27 1
    32   14   28 2
    33   15   16 1
    34   15   17 1
    35   15   27 1
    36   15   40 1
    37   16   29 1
    38   16   30 1
    39   17   18 1
    40   17   41 1
    41   17   42 1
    42   18   19 1
    43   18   43 1
    44   18   44 1
    45   19   31 2
    46   19   32 1
    47   20   45 1
    48   21   46 1
    49   21   47 1
    50   26   48 1
    51   27   49 1
    52   32   50 1
@<TRIPOS>SUBSTRUCTURE
     1 FA          1 TEMP              0 ****  ****    0 ROOT
