@<TRIPOS>MOLECULE
FA0
   16    16     1     0     0
SMALL
bcc


@<TRIPOS>ATOM
      1 OAA          0.0000     0.0000     0.0000 o          1 FA0      -0.887800
      2 CAB          1.2160     0.0000     0.0000 c          1 FA0       0.980200
      3 OAC          1.8900     0.0000     1.1670 o          1 FA0      -0.887800
      4 CAD          1.9510    -0.0080    -1.2750 ca         1 FA0      -0.144600
      5 CAE          3.3440     0.1150    -1.2840 ca         1 FA0      -0.031000
      6 CAF          4.0260     0.1080    -2.4790 ca         1 FA0      -0.191000
      7 CAG          3.3390    -0.0210    -3.6790 ca         1 FA0       0.073900
      8 FAH          4.0190    -0.0260    -4.8450 f          1 FA0      -0.155900
      9 CAI          1.9620    -0.1430    -3.6860 ca         1 FA0      -0.202000
     10 CAJ          1.2570    -0.1440    -2.4900 ca         1 FA0       0.081600
     11 NAK         -0.1250    -0.2670    -2.4940 nv         1 FA0      -0.501200
     12 H2           3.8850     0.2160    -0.3510 ha         1 FA0       0.129000
     13 H3           5.1060     0.2040    -2.4830 ha         1 FA0       0.098000
     14 H4           1.4320    -0.2460    -4.6260 ha         1 FA0       0.104000
     15 H5          -0.6930     0.4800    -2.8450 hn         1 FA0       0.267300
     16 H6          -0.5560    -1.0850    -2.1110 hn         1 FA0       0.267300
@<TRIPOS>BOND
     1     1     2 1   
     2     2     3 1   
     3     2     4 1   
     4     4     5 ar  
     5     4    10 ar  
     6     5     6 ar  
     7     5    12 1   
     8     6     7 ar  
     9     6    13 1   
    10     7     8 1   
    11     7     9 ar  
    12     9    10 ar  
    13     9    14 1   
    14    10    11 1   
    15    11    15 1   
    16    11    16 1   
@<TRIPOS>SUBSTRUCTURE
     1 FA0         1 TEMP              0 ****  ****    0 ROOT
