@<TRIPOS>MOLECULE
FA1
   21    21     1     0     0
SMALL
bcc


@<TRIPOS>ATOM
      1 C2          0.0200   -0.1340   -0.1160 c3        1 FA1     -0.063400
      2 C3          1.5300    0.0260   -0.0270 c3        1 FA1      0.116100
      3 O3          1.9000    1.1890   -0.7580 oh        1 FA1     -0.610800
      4 C4          1.9690    0.1500    1.4440 c3        1 FA1      0.145300
      5 O4          3.3910    0.1980    1.5170 oh        1 FA1     -0.625800
      6 C5          1.4010   -0.9620    2.2580 c2        1 FA1     -0.266200
      7 C6          0.3170   -1.6450    1.8810 c2        1 FA1     -0.074200
      8 C          -1.9750   -1.2610    0.9780 c         1 FA1      0.906600
      9 O1         -2.3850   -0.1930    1.4950 o         1 FA1     -0.817300
     10 O30        -0.2390   -2.5070   -0.2490 oh        1 FA1     -0.636800
     11 O2         -2.6820   -2.2750    0.7160 o         1 FA1     -0.817300
     12 C1         -0.4480   -1.3920    0.6140 c3        1 FA1      0.035000
     13 H2C1       -0.4880    0.7550    0.3440 hc        1 FA1      0.069200
     14 H2C2       -0.2820   -0.1950   -1.1920 hc        1 FA1      0.069200
     15 H3          2.0390   -0.8660   -0.4920 h1        1 FA1      0.035700
     16 HB          2.7990    1.4050   -0.4800 ho        1 FA1      0.394000
     17 H4          1.6450    1.1490    1.8550 h1        1 FA1      0.083700
     18 HA          3.7130   -0.6840    1.2980 ho        1 FA1      0.394000
     19 H5          1.9210   -1.1610    3.2050 ha        1 FA1      0.111000
     20 H6         -0.0930   -2.4600    2.4990 ha        1 FA1      0.124000
     21 H30        -1.0690   -3.0130   -0.2650 ho        1 FA1      0.429000
@<TRIPOS>BOND
     1    1    2 1   
     2    1   12 1   
     3    1   13 1   
     4    1   14 1   
     5    2    3 1   
     6    2    4 1   
     7    2   15 1   
     8    3   16 1   
     9    4    5 1   
    10    4    6 1   
    11    4   17 1   
    12    5   18 1   
    13    6    7 2   
    14    6   19 1   
    15    7   12 1   
    16    7   20 1   
    17    8    9 1   
    18    8   11 1   
    19    8   12 1   
    20   10   12 1   
    21   10   21 1   
@<TRIPOS>SUBSTRUCTURE
     1 FA1         1 TEMP              0 ****  ****    0 ROOT
