@<TRIPOS>MOLECULE
molecule
   21    21     1     0     0
SMALL
bcc


@<TRIPOS>ATOM
      1 C2           0.0000     0.0000     0.0000 c3         1 FA1      -0.066400
      2 C3           1.5340     0.0000     0.0000 c3         1 FA1       0.138100
      3 O3           2.0150     1.1660    -0.6710 oh         1 FA1      -0.621800
      4 C4           2.0230     0.0000     1.4480 c3         1 FA1       0.180300
      5 O4           3.4300    -0.2470     1.4800 oh         1 FA1      -0.617800
      6 C5           1.3120    -1.0650     2.2330 c2         1 FA1      -0.228200
      7 C6           0.2220    -1.6440     1.8490 c2         1 FA1      -0.081200
      8 C           -1.9680    -1.2660     0.8130 c          1 FA1       0.874600
      9 O1          -2.4610    -0.3560     1.6680 o          1 FA1      -0.832300
     10 O30         -0.2140    -2.3730    -0.3850 oh         1 FA1      -0.637800
     11 O2          -2.7160    -2.0260     0.2450 o          1 FA1      -0.832300
     12 C1          -0.4850    -1.3370     0.5610 c3         1 FA1       0.072000
     13 H2C1        -0.3630     0.8090     0.6230 hc         1 FA1       0.065200
     14 H2C2        -0.3630     0.1210    -1.0130 hc         1 FA1       0.065200
     15 H3           1.8950    -0.8890    -0.5030 h1         1 FA1       0.057700
     16 HB           2.5540     0.9090    -1.4000 ho         1 FA1       0.391000
     17 H4           1.8160     0.9660     1.8930 h1         1 FA1       0.041700
     18 HA           3.8440     0.3700     2.0600 ho         1 FA1       0.386000
     19 H5           1.7390    -1.3670     3.1810 ha         1 FA1       0.104000
     20 H6          -0.2080    -2.3990     2.4970 ha         1 FA1       0.120000
     21 H30         -1.0090    -2.8470    -0.5670 ho         1 FA1       0.424000
@<TRIPOS>BOND
     1     1     2 1
     2     1    12 1
     3     1    13 1
     4     1    14 1
     5     2     3 1
     6     2     4 1
     7     2    15 1
     8     3    16 1
     9     4     5 1
    10     4     6 1
    11     4    17 1
    12     5    18 1
    13     6     7 2
    14     6    19 1
    15     7    12 1
    16     7    20 1
    17     8     9 1
    18     8    11 1
    19     8    12 1
    20    10    12 1
    21    10    21 1
@<TRIPOS>SUBSTRUCTURE
     1 FA1         1 TEMP              0 ****  ****    0 ROOT
