@<TRIPOS>MOLECULE
molecule
   21    21     1     0     0
SMALL
bcc


@<TRIPOS>ATOM
      1 C2           0.0000     0.0000     0.0000 c3         1 FA3      -0.073400
      2 F1           1.8490    -1.4470     3.4130 f          1 FA3      -0.199500
      3 C3           1.5320     0.0000     0.0000 c3         1 FA3       0.141100
      4 O3           2.0130     1.1680    -0.6690 oh         1 FA3      -0.618800
      5 C4           2.0210     0.0000     1.4490 c3         1 FA3       0.176300
      6 O4           3.4290    -0.2450     1.4800 oh         1 FA3      -0.607800
      7 C5           1.3120    -1.0670     2.2320 c2         1 FA3       0.047300
      8 C6           0.2200    -1.6480     1.8450 c2         1 FA3      -0.132200
      9 C           -1.9690    -1.2690     0.8070 c          1 FA3       0.874600
     10 O1          -2.4630    -0.3620     1.6650 o          1 FA3      -0.828300
     11 O30         -0.2130    -2.3730    -0.3900 oh         1 FA3      -0.635800
     12 O2          -2.7150    -2.0290     0.2380 o          1 FA3      -0.828300
     13 C1          -0.4850    -1.3390     0.5580 c3         1 FA3       0.083000
     14 H2C1        -0.3630     0.1250    -1.0130 hc         1 FA3       0.068200
     15 H2C2        -0.3630     0.8070     0.6250 hc         1 FA3       0.068200
     16 H3           1.8940    -0.8880    -0.5040 h1         1 FA3       0.060700
     17 HB           2.4490     0.9160    -1.4670 ho         1 FA3       0.395000
     18 H4           1.8120     0.9650     1.8940 h1         1 FA3       0.051700
     19 HA           3.8430     0.3730     2.0600 ho         1 FA3       0.394000
     20 H6          -0.2120    -2.4000     2.4940 ha         1 FA3       0.138000
     21 H30         -0.9910    -2.8880    -0.5240 ho         1 FA3       0.426000
@<TRIPOS>BOND
     1     1     3 1
     2     1    13 1
     3     1    14 1
     4     1    15 1
     5     2     7 1
     6     3     4 1
     7     3     5 1
     8     3    16 1
     9     4    17 1
    10     5     6 1
    11     5     7 1
    12     5    18 1
    13     6    19 1
    14     7     8 2
    15     8    13 1
    16     8    20 1
    17     9    10 1
    18     9    12 1
    19     9    13 1
    20    11    13 1
    21    11    21 1
@<TRIPOS>SUBSTRUCTURE
     1 FA3         1 TEMP              0 ****  ****    0 ROOT
