@<TRIPOS>MOLECULE
FA3
   21    21     1     0     0
SMALL
bcc


@<TRIPOS>ATOM
      1 C2          0.1710   -0.2500   -0.2350 c3        1 FA3     -0.105400
      2 F1          1.9790   -1.2350    3.4420 f         1 FA3     -0.207500
      3 C3          1.6740   -0.0780   -0.0640 c3        1 FA3      0.149100
      4 O3          2.1430    1.0310   -0.8150 oh        1 FA3     -0.599800
      5 C4          2.0150    0.0990    1.4280 c3        1 FA3      0.148300
      6 O4          3.4310    0.1050    1.5460 oh        1 FA3     -0.596800
      7 C5          1.3800   -1.0020    2.2390 c2        1 FA3      0.000300
      8 C6          0.3000   -1.6930    1.8310 c2        1 FA3     -0.114200
      9 C          -1.9250   -1.1900    0.8430 c         1 FA3      0.907600
     10 O1         -2.2800   -0.0490    1.2270 o         1 FA3     -0.813800
     11 O30        -0.2470   -2.6000   -0.2820 oh        1 FA3     -0.629800
     12 O2         -2.6790   -2.1870    0.6730 o         1 FA3     -0.813800
     13 C1         -0.3970   -1.4400    0.5310 c3        1 FA3      0.048000
     14 H2C1       -0.3580    0.6750    0.1210 hc        1 FA3      0.068200
     15 H2C2       -0.0510   -0.3830   -1.3260 hc        1 FA3      0.068200
     16 H3          2.2400   -0.9560   -0.4810 h1        1 FA3      0.092700
     17 HB          1.6400    1.8010   -0.5260 ho        1 FA3      0.389000
     18 H4          1.6240    1.0940    1.7930 h1        1 FA3      0.041700
     19 HA          3.6360   -0.0570    2.4750 ho        1 FA3      0.398000
     20 H6         -0.1400   -2.4920    2.4480 ha        1 FA3      0.141000
     21 H30        -1.0910   -3.0820   -0.2450 ho        1 FA3      0.430000
@<TRIPOS>BOND
     1    1    3 1   
     2    1   13 1   
     3    1   14 1   
     4    1   15 1   
     5    2    7 1   
     6    3    4 1   
     7    3    5 1   
     8    3   16 1   
     9    4   17 1   
    10    5    6 1   
    11    5    7 1   
    12    5   18 1   
    13    6   19 1   
    14    7    8 2   
    15    8   13 1   
    16    8   20 1   
    17    9   10 1   
    18    9   12 1   
    19    9   13 1   
    20   11   13 1   
    21   11   21 1   
@<TRIPOS>SUBSTRUCTURE
     1 FA3         1 TEMP              0 ****  ****    0 ROOT
