@<TRIPOS>MOLECULE
molecule
   77    77     1     0     0
SMALL
bcc


@<TRIPOS>ATOM
      1 C1           0.0000     0.0000     0.0000 ca         1 FA4      -0.084000
      2 C2           1.3820     0.0000     0.0000 ca         1 FA4      -0.118000
      3 C3           2.0740     0.0000     1.1970 ca         1 FA4      -0.055300
      4 C4           1.3820    -0.0050     2.3940 ca         1 FA4      -0.147300
      5 C5          -0.0000    -0.0000     2.3950 ca         1 FA4      -0.098000
      6 C6          -0.6910     0.0010     1.1970 ca         1 FA4      -0.120000
      7 C7           3.5800    -0.0000     1.1980 c3         1 FA4      -0.047100
      8 C8           4.0900    -1.4370     1.3240 c3         1 FA4      -0.080400
      9 C9           5.6200    -1.4370     1.3240 c3         1 FA4      -0.083400
     10 C10          6.1290    -2.8750     1.4510 c3         1 FA4      -0.082400
     11 C11          7.6590    -2.8760     1.4500 c3         1 FA4      -0.082400
     12 C12          8.1690    -4.3120     1.5770 c3         1 FA4      -0.079400
     13 C13          9.6990    -4.3130     1.5770 c3         1 FA4      -0.084400
     14 C14         10.2090    -5.7500     1.7040 c3         1 FA4      -0.067400
     15 C15         11.7390    -5.7500     1.7040 c3         1 FA4      -0.152400
     16 C16         12.2410    -7.1650     1.8290 c          1 FA4       0.665100
     17 N17         13.5650    -7.4120     1.8500 ns         1 FA4      -0.576900
     18 C18         14.0530    -8.7880     1.9710 c3         1 FA4       0.055700
     19 O19         11.4520    -8.0840     1.9090 o          1 FA4      -0.590100
     20 C20         15.4560    -8.7790     2.5830 c3         1 FA4      -0.092400
     21 C21         14.1040    -9.4250     0.6070 c          1 FA4       0.651100
     22 N22         14.5250   -10.6970     0.4720 ns         1 FA4      -0.470400
     23 C23         15.3850    -8.2470     4.0150 c3         1 FA4      -0.075400
     24 C24         16.7870    -8.2400     4.6270 c3         1 FA4      -0.113400
     25 C25         16.7160    -7.7080     6.0600 c3         1 FA4       0.091800
     26 N26         18.0630    -7.7000     6.6470 nz         1 FA4      -0.810600
     27 C27          2.1360    -0.0060     3.6990 c3         1 FA4       0.260100
     28 N28          2.5920     1.3540     4.0010 nu         1 FA4      -0.847200
     29 C29          3.3060     1.6010     5.1490 c2         1 FA4       0.692100
     30 N30          3.5920     0.5720     6.0150 nz         1 FA4      -0.806600
     31 N31          3.7130     2.8100     5.4160 n2         1 FA4      -0.785100
     32 O32         14.5730   -11.2970    -0.8100 oh         1 FA4      -0.347100
     33 O33         13.7660    -8.7920    -0.3720 o          1 FA4      -0.541100
     34 H1          -0.5420     0.0000    -0.9380 ha         1 FA4       0.154000
     35 H2           1.9240     0.0020    -0.9380 ha         1 FA4       0.151000
     36 H5          -0.5420    -0.0020     3.3330 ha         1 FA4       0.133000
     37 H6          -1.7750     0.0020     1.1970 ha         1 FA4       0.153000
     38 H71          3.9420     0.4310     0.2720 hc         1 FA4       0.051700
     39 H72          3.9410     0.5850     2.0340 hc         1 FA4       0.051700
     40 H81          3.7290    -2.0230     0.4870 hc         1 FA4       0.045700
     41 H82          3.7290    -1.8690     2.2490 hc         1 FA4       0.045700
     42 H91          5.9820    -1.0060     0.3980 hc         1 FA4       0.040200
     43 H92          5.9810    -0.8510     2.1610 hc         1 FA4       0.040200
     44 H101         5.7680    -3.3060     2.3770 hc         1 FA4       0.044700
     45 H102         5.7680    -3.4610     0.6140 hc         1 FA4       0.044700
     46 H111         8.0210    -2.2890     2.2860 hc         1 FA4       0.041200
     47 H112         8.0200    -2.4450     0.5240 hc         1 FA4       0.041200
     48 H121         7.8080    -4.7430     2.5030 hc         1 FA4       0.047200
     49 H122         7.8080    -4.8990     0.7410 hc         1 FA4       0.047200
     50 H131        10.0600    -3.7270     2.4130 hc         1 FA4       0.039700
     51 H132        10.0600    -3.8820     0.6510 hc         1 FA4       0.039700
     52 H141         9.8480    -6.1810     2.6300 hc         1 FA4       0.062700
     53 H142         9.8470    -6.3370     0.8680 hc         1 FA4       0.062700
     54 H151        12.1000    -5.1640     2.5400 hc         1 FA4       0.061200
     55 H152        12.1000    -5.3200     0.7770 hc         1 FA4       0.061200
     56 H17         14.2160    -6.6580     1.7540 hn         1 FA4       0.317500
     57 H18         13.3850    -9.3530     2.6090 h1         1 FA4       0.097700
     58 H201        15.8530    -9.7880     2.5910 hc         1 FA4       0.063200
     59 H202        16.1040    -8.1420     1.9930 hc         1 FA4       0.063200
     60 H22         14.7790   -11.2280     1.2820 hn         1 FA4       0.312500
     61 H231        14.9890    -7.2390     4.0070 hc         1 FA4       0.062200
     62 H232        14.7370    -8.8840     4.6050 hc         1 FA4       0.062200
     63 H241        17.1820    -9.2480     4.6350 hc         1 FA4       0.068700
     64 H242        17.4350    -7.6030     4.0370 hc         1 FA4       0.068700
     65 H251        16.3190    -6.7000     6.0520 hx         1 FA4       0.112200
     66 H252        16.0690    -8.3460     6.6500 hx         1 FA4       0.112200
     67 H261        18.6600    -7.1100     6.1020 hn         1 FA4       0.459133
     68 H262        18.4290    -8.6310     6.6540 hn         1 FA4       0.459133
     69 H271         2.9910    -0.6650     3.6220 h1         1 FA4       0.042700
     70 H272         1.4840    -0.3520     4.4930 h1         1 FA4       0.042700
     71 H28          2.3110     2.1150     3.4160 hn         1 FA4       0.515800
     72 H301         2.7610     0.0440     6.1940 hn         1 FA4       0.466133
     73 H302         3.9400     0.9470     6.8750 hn         1 FA4       0.466133
     74 H31          4.2340     2.9900     6.2520 hn         1 FA4       0.437400
     75 H32         14.5730   -12.2360    -0.7190 ho         1 FA4       0.406000
     76 H263        18.0180    -7.3430     7.5810 hn         1 FA4       0.459133
     77 H303         4.2900    -0.0210     5.6100 hn         1 FA4       0.466133
@<TRIPOS>BOND
     1     1     2 ar
     2     1     6 ar
     3     1    34 1
     4     2     3 ar
     5     2    35 1
     6     3     4 ar
     7     3     7 1
     8     4     5 ar
     9     4    27 1
    10     5     6 ar
    11     5    36 1
    12     6    37 1
    13     7     8 1
    14     7    38 1
    15     7    39 1
    16     8     9 1
    17     8    40 1
    18     8    41 1
    19     9    10 1
    20     9    42 1
    21     9    43 1
    22    10    11 1
    23    10    44 1
    24    10    45 1
    25    11    12 1
    26    11    46 1
    27    11    47 1
    28    12    13 1
    29    12    48 1
    30    12    49 1
    31    13    14 1
    32    13    50 1
    33    13    51 1
    34    14    15 1
    35    14    52 1
    36    14    53 1
    37    15    16 1
    38    15    54 1
    39    15    55 1
    40    16    17 1
    41    16    19 2
    42    17    18 1
    43    17    56 1
    44    18    20 1
    45    18    21 1
    46    18    57 1
    47    20    23 1
    48    20    58 1
    49    20    59 1
    50    21    22 1
    51    21    33 2
    52    22    32 1
    53    22    60 1
    54    23    24 1
    55    23    61 1
    56    23    62 1
    57    24    25 1
    58    24    63 1
    59    24    64 1
    60    25    26 1
    61    25    65 1
    62    25    66 1
    63    26    67 1
    64    26    68 1
    65    27    28 1
    66    27    69 1
    67    27    70 1
    68    28    29 1
    69    28    71 1
    70    29    30 1
    71    29    31 2
    72    30    72 1
    73    30    73 1
    74    31    74 1
    75    32    75 1
    76    76    26 1
    77    77    30 1
@<TRIPOS>SUBSTRUCTURE
     1 FA4         1 TEMP              0 ****  ****    0 ROOT
