@<TRIPOS>MOLECULE
FA6
   24    24     1     0     0
SMALL
bcc


@<TRIPOS>ATOM
      1 O2           0.0000     0.0000     0.0000 o          1 FA6      -0.879800
      2 C7           1.2080     0.0000     0.0000 c          1 FA6       0.949600
      3 O1           1.8790     0.0010    -1.1630 o          1 FA6      -0.879800
      4 C1           1.9620     0.0000     1.3040 c3         1 FA6       0.073800
      5 O3           3.1560     0.7720     1.1650 oh         1 FA6      -0.613800
      6 C2           2.3270    -1.4390     1.6830 c3         1 FA6      -0.073700
      7 C3           2.9630    -1.4300     3.0550 c2         1 FA6       0.351300
      8 N1           4.0870    -2.0060     3.2620 n2         1 FA6      -0.417200
      9 O6           4.7520    -2.6630     2.1990 oh         1 FA6      -0.369500
     10 C4           2.2340    -0.7260     4.1790 c3         1 FA6       0.158800
     11 O4           3.0790    -0.6510     5.3290 oh         1 FA6      -0.575800
     12 C5           1.8760     0.6920     3.7080 c3         1 FA6       0.170100
     13 O5           1.0800     1.3360     4.7050 oh         1 FA6      -0.601800
     14 C6           1.0860     0.6070     2.4010 c3         1 FA6      -0.056400
     15 H3           3.0600     1.3730     0.4450 ho         1 FA6       0.411000
     16 H2C1         1.4310    -2.0480     1.7030 hc         1 FA6       0.045200
     17 H2C2         3.0280    -1.8380     0.9600 hc         1 FA6       0.045200
     18 H6           5.5250    -3.0910     2.5280 ho         1 FA6       0.394000
     19 H4C          1.3280    -1.2680     4.4200 h1         1 FA6       0.011700
     20 H4           2.6990    -1.1540     6.0310 ho         1 FA6       0.377000
     21 H5C          2.7850     1.2570     3.5440 h1         1 FA6       0.028700
     22 H5           1.4350     2.1900     4.8870 ho         1 FA6       0.382000
     23 H6C1         0.7770     1.6020     2.1030 hc         1 FA6       0.033700
     24 H6C2         0.2130    -0.0170     2.5490 hc         1 FA6       0.033700
@<TRIPOS>BOND
     1     1     2 1   
     2     2     3 1   
     3     2     4 1   
     4     4     5 1   
     5     4     6 1   
     6     4    14 1   
     7     5    15 1   
     8     6     7 1   
     9     6    16 1   
    10     6    17 1   
    11     7     8 2   
    12     7    10 1   
    13     8     9 1   
    14     9    18 1   
    15    10    11 1   
    16    10    12 1   
    17    10    19 1   
    18    11    20 1   
    19    12    13 1   
    20    12    14 1   
    21    12    21 1   
    22    13    22 1   
    23    14    23 1   
    24    14    24 1   
@<TRIPOS>SUBSTRUCTURE
     1 FA6         1 TEMP              0 ****  ****    0 ROOT
