@<TRIPOS>MOLECULE
FA7
   24    23     1     0     0
SMALL
bcc


@<TRIPOS>ATOM
      1 C1         -1.0090    0.2570    0.3970 c         1 FA7      0.890800
      2 O          -0.5430    1.4110    0.1710 o         1 FA7     -0.836300
      3 C2         -0.1260   -0.8260    0.9740 ce        1 FA7     -0.160200
      4 C3          0.9910   -0.6800    1.6990 cf        1 FA7     -0.194000
      5 C4          1.5920    0.5920    2.0360 cf        1 FA7     -0.075000
      6 C5          2.6800    0.7510    2.8050 c2        1 FA7     -0.256200
      7 C6          3.4410   -0.3550    3.4310 c3        1 FA7     -0.026200
      8 C7          4.5380    0.1350    4.3680 c3        1 FA7     -0.066700
      9 C8          3.9480    0.7580    5.6160 c3        1 FA7     -0.086600
     10 C9          5.4630   -1.0060    4.7360 c3        1 FA7     -0.086600
     11 OXT        -2.2080   -0.0700    0.1500 o         1 FA7     -0.836300
     12 H2         -0.5070   -1.8420    0.7700 ha        1 FA7      0.097000
     13 H3          1.5170   -1.5740    2.0810 ha        1 FA7      0.078000
     14 H4          1.0810    1.4740    1.5910 ha        1 FA7      0.180000
     15 H5          3.0660    1.7640    2.9970 ha        1 FA7      0.102000
     16 H61         2.7440   -1.0260    4.0040 hc        1 FA7      0.035700
     17 H62         3.9090   -0.9860    2.6250 hc        1 FA7      0.035700
     18 H7          5.1400    0.9200    3.8290 hc        1 FA7      0.041700
     19 H81         3.2440    1.5800    5.3380 hc        1 FA7      0.026867
     20 H82         4.7560    1.1780    6.2620 hc        1 FA7      0.026867
     21 H83         3.3840   -0.0040    6.2050 hc        1 FA7      0.026867
     22 H91         4.8930   -1.8250    5.2370 hc        1 FA7      0.026867
     23 H92         5.9500   -1.4230    3.8220 hc        1 FA7      0.026867
     24 H93         6.2600   -0.6520    5.4340 hc        1 FA7      0.026867
@<TRIPOS>BOND
     1    1    2 1   
     2    1    3 1   
     3    1   11 1   
     4    3    4 2   
     5    3   12 1   
     6    4    5 1   
     7    4   13 1   
     8    5    6 2   
     9    5   14 1   
    10    6    7 1   
    11    6   15 1   
    12    7    8 1   
    13    7   16 1   
    14    7   17 1   
    15    8    9 1   
    16    8   10 1   
    17    8   18 1   
    18    9   19 1   
    19    9   20 1   
    20    9   21 1   
    21   10   22 1   
    22   10   23 1   
    23   10   24 1   
@<TRIPOS>SUBSTRUCTURE
     1 FA7         1 TEMP              0 ****  ****    0 ROOT
