@<TRIPOS>MOLECULE
molecule
   24    23     1     0     0
SMALL
bcc


@<TRIPOS>ATOM
      1 C1           0.0000     0.0000     0.0000 c          1 FA7       0.961800
      2 O            1.2160     0.0000     0.0000 o          1 FA7      -0.795300
      3 C2          -0.7090     0.0000     1.2280 ce         1 FA7      -0.226200
      4 C3          -0.0390    -0.1360     2.3960 cf         1 FA7      -0.300000
      5 C4           1.3810    -0.4840     2.3870 cf         1 FA7      -0.020000
      6 C5           2.0700    -0.5040     3.5310 c2         1 FA7      -0.365200
      7 C6           3.5340    -0.8620     3.5220 c3         1 FA7      -0.008200
      8 C7           4.3360     0.2550     4.1930 c3         1 FA7      -0.074700
      9 C8           3.9490     0.3430     5.6710 c3         1 FA7      -0.085600
     10 C9           5.8310    -0.0480     4.0750 c3         1 FA7      -0.085600
     11 OXT         -0.6750     0.0040    -1.1690 o          1 FA7      -0.795300
     12 H2          -0.4620    -0.9350     0.7410 ha         1 FA7       0.080000
     13 H3           0.7110     0.6380     2.2900 ha         1 FA7       0.130000
     14 H4           1.8740    -0.7250     1.4530 ha         1 FA7       0.201000
     15 H5           1.5770    -0.2630     4.4650 ha         1 FA7       0.116000
     16 H61          3.8700    -0.9830     2.5000 hc         1 FA7       0.031200
     17 H62          3.6820    -1.7880     4.0640 hc         1 FA7       0.031200
     18 H7           4.1190     1.1980     3.7060 hc         1 FA7       0.054700
     19 H81          4.7580     0.7970     6.2310 hc         1 FA7       0.025033
     20 H82          3.0550     0.9480     5.7750 hc         1 FA7       0.025033
     21 H83          3.7580    -0.6520     6.0550 hc         1 FA7       0.025033
     22 H91          6.3980     0.7370     4.5590 hc         1 FA7       0.025033
     23 H92          6.0460    -0.9960     4.5530 hc         1 FA7       0.025033
     24 H93          6.1070    -0.1010     3.0290 hc         1 FA7       0.025033
@<TRIPOS>BOND
     1     1     2 1
     2     1     3 1
     3     1    11 1
     4     3     4 2
     5     4     5 1
     6     5     6 2
     7     6     7 1
     8     7     8 1
     9     8     9 1
    10     8    10 1
    11     3    12 1
    12     4    13 1
    13     5    14 1
    14     6    15 1
    15     7    16 1
    16     7    17 1
    17     8    18 1
    18     9    19 1
    19     9    20 1
    20     9    21 1
    21    10    22 1
    22    10    23 1
    23    10    24 1
@<TRIPOS>SUBSTRUCTURE
     1 FA7         1 TEMP              0 ****  ****    0 ROOT
