@<TRIPOS>MOLECULE
FAC
   13    12     1     0     0
SMALL
bcc


@<TRIPOS>ATOM
      1 C           0.0190    0.0010    0.0290 c3        1 FAC      0.272600
      2 O1          1.4140    0.0110    0.0620 oh        1 FAC     -0.587800
      3 O2         -0.4270   -0.0070    1.3520 oh        1 FAC     -0.587800
      4 C1         -0.4140    1.3200   -0.7380 c3        1 FAC      0.634900
      5 C2         -0.5520   -1.3220   -0.6360 c3        1 FAC      0.634900
      6 F1         -0.3280    2.4170    0.0790 f         1 FAC     -0.211967
      7 F2          0.3500    1.6010   -1.8310 f         1 FAC     -0.211967
      8 F3         -1.7080    1.2910   -1.1770 f         1 FAC     -0.211967
      9 F4          0.1890   -2.4160   -0.2740 f         1 FAC     -0.211967
     10 F5         -1.8400   -1.6050   -0.2900 f         1 FAC     -0.211967
     11 F6         -0.5230   -1.2960   -2.0020 f         1 FAC     -0.211967
     12 H1          1.7140   -0.7940    0.5160 ho        1 FAC      0.453000
     13 H2         -0.1040    0.8000    1.7860 ho        1 FAC      0.453000
@<TRIPOS>BOND
     1    1    2 1   
     2    1    3 1   
     3    1    4 1   
     4    1    5 1   
     5    2   12 1   
     6    3   13 1   
     7    4    6 1   
     8    4    7 1   
     9    4    8 1   
    10    5    9 1   
    11    5   10 1   
    12    5   11 1   
@<TRIPOS>SUBSTRUCTURE
     1 FAC         1 TEMP              0 ****  ****    0 ROOT
