@<TRIPOS>MOLECULE
molecule
   13    12     1     0     0
SMALL
bcc


@<TRIPOS>ATOM
      1 C            0.0000     0.0000     0.0000 c3         1 FAC       0.256600
      2 O1           1.4280     0.0000     0.0000 oh         1 FAC      -0.582800
      3 O2          -0.4750     0.0000     1.3470 oh         1 FAC      -0.582800
      4 C1          -0.5100     1.2490    -0.7210 c3         1 FAC       0.616900
      5 C2          -0.5100    -1.2490    -0.7210 c3         1 FAC       0.616900
      6 F1          -0.0440     2.3910    -0.0620 f          1 FAC      -0.200967
      7 F2          -0.0440     1.2490    -2.0390 f          1 FAC      -0.200967
      8 F3          -1.9080     1.2490    -0.7200 f          1 FAC      -0.200967
      9 F4          -0.0440    -2.3910    -0.0620 f          1 FAC      -0.200967
     10 F5          -1.9080    -1.2490    -0.7200 f          1 FAC      -0.200967
     11 F6          -0.0440    -1.2490    -2.0390 f          1 FAC      -0.200967
     12 H1           1.7430     0.4980     0.7360 ho         1 FAC       0.441000
     13 H2           0.1150    -0.4980     1.8890 ho         1 FAC       0.441000
@<TRIPOS>BOND
     1     1     2 1
     2     1     3 1
     3     1     4 1
     4     1     5 1
     5     2    12 1
     6     3    13 1
     7     4     6 1
     8     4     7 1
     9     4     8 1
    10     5     9 1
    11     5    10 1
    12     5    11 1
@<TRIPOS>SUBSTRUCTURE
     1 FAC         1 TEMP              0 ****  ****    0 ROOT
