@<TRIPOS>MOLECULE
FAF
   46    46     1     0     0
SMALL
bcc


@<TRIPOS>ATOM
      1 CX           0.0000     0.0000     0.0000 c          1 FAF       0.570100
      2 OX           1.2130     0.0000     0.0000 o          1 FAF      -0.598100
      3 CAX         -0.7540     0.0000     1.3050 c3         1 FAF      -0.067100
      4 NL          -0.6740     0.0000    -1.1670 ns         1 FAF      -0.193900
      5 CAL          0.0590     0.0000    -2.4350 c3         1 FAF      -0.034300
      6 CBL          0.9380     1.2490    -2.5160 c3         1 FAF      -0.056400
      7 CGL          0.0590     2.4980    -2.4340 c3         1 FAF      -0.054700
      8 CDL          0.9380     3.7470    -2.5150 c3         1 FAF       0.003900
      9 CDM         -0.9350     2.4980    -3.5980 c3         1 FAF       0.003900
     10 C            0.9240    -1.2310    -2.5150 c          1 FAF       0.558100
     11 O            1.3690    -1.7250    -1.5010 o          1 FAF      -0.605100
     12 N            1.2050    -1.7810    -3.7120 ns         1 FAF      -0.180900
     13 CA           2.0470    -2.9760    -3.7900 c3         1 FAF      -0.107300
     14 CB           1.6390    -3.8090    -5.0060 c3         1 FAF       0.033900
     15 CG           0.1960    -4.2200    -4.8740 ca         1 FAF      -0.096300
     16 CD1         -0.8020    -3.4100    -5.3830 ca         1 FAF      -0.096000
     17 CD2         -0.1300    -5.4070    -4.2490 ca         1 FAF      -0.096000
     18 CE1         -2.1270    -3.7850    -5.2610 ca         1 FAF      -0.095000
     19 CE2         -1.4560    -5.7820    -4.1230 ca         1 FAF      -0.095000
     20 CZ          -2.4530    -4.9720    -4.6300 ca         1 FAF      -0.099000
     21 CW           3.4910    -2.5660    -3.9230 c          1 FAF       0.641900
     22 OW           3.7860    -1.3960    -3.9500 o          1 FAF      -0.540100
     23 HAX1        -1.4130     0.8590     1.3410 hc         1 FAF       0.020033
     24 HAX2        -0.0520     0.0480     2.1280 hc         1 FAF       0.020033
     25 HAX3        -1.3400    -0.9080     1.3830 hc         1 FAF       0.020033
     26 HL          -1.6740    -0.0410    -1.1680 hn         1 FAF       0.167500
     27 HAL         -0.6450     0.0000    -3.2590 h1         1 FAF       0.032700
     28 HBL1         1.4790     1.2490    -3.4540 hc         1 FAF       0.051700
     29 HBL2         1.6420     1.2480    -1.6930 hc         1 FAF       0.051700
     30 HGL         -0.4830     2.4980    -1.4960 hc         1 FAF       0.027700
     31 HDL1         1.6740     3.7230    -1.7200 hc         1 FAF       0.003033
     32 HDL2         0.3210     4.6310    -2.4080 hc         1 FAF       0.003033
     33 HDL3         1.4420     3.7720    -3.4740 hc         1 FAF       0.003033
     34 HDM1        -1.3850     3.4800    -3.6890 hc         1 FAF       0.003033
     35 HDM2        -1.7080     1.7620    -3.4130 hc         1 FAF       0.003033
     36 HDM3        -0.4150     2.2540    -4.5170 hc         1 FAF       0.003033
     37 HN           0.8710    -1.3490    -4.5510 hn         1 FAF       0.176500
     38 HA           1.9210    -3.5660    -2.8900 h1         1 FAF       0.082700
     39 HB1          1.7650    -3.2200    -5.9060 hc         1 FAF       0.025700
     40 HB2          2.2620    -4.6940    -5.0630 hc         1 FAF       0.025700
     41 HD1         -0.5460    -2.4810    -5.8770 ha         1 FAF       0.104500
     42 HD2          0.6520    -6.0420    -3.8510 ha         1 FAF       0.104500
     43 HE1         -2.9090    -3.1510    -5.6590 ha         1 FAF       0.104000
     44 HE2         -1.7110    -6.7120    -3.6310 ha         1 FAF       0.104000
     45 HZ          -3.4910    -5.2650    -4.5330 ha         1 FAF       0.104000
     46 HW           4.2680    -3.3210    -3.9450 h4         1 FAF      -0.036800
@<TRIPOS>BOND
     1     1     2 2   
     2     1     3 1   
     3     1     4 1   
     4     3    23 1   
     5     3    24 1   
     6     3    25 1   
     7     4     5 1   
     8     4    26 1   
     9     5     6 1   
    10     5    10 1   
    11     5    27 1   
    12     6     7 1   
    13     6    28 1   
    14     6    29 1   
    15     7     8 1   
    16     7     9 1   
    17     7    30 1   
    18     8    31 1   
    19     8    32 1   
    20     8    33 1   
    21     9    34 1   
    22     9    35 1   
    23     9    36 1   
    24    10    11 2   
    25    10    12 1   
    26    12    13 1   
    27    12    37 1   
    28    13    14 1   
    29    13    21 1   
    30    13    38 1   
    31    14    15 1   
    32    14    39 1   
    33    14    40 1   
    34    15    16 ar  
    35    15    17 ar  
    36    16    18 ar  
    37    16    41 1   
    38    17    19 ar  
    39    17    42 1   
    40    18    20 ar  
    41    18    43 1   
    42    19    20 ar  
    43    19    44 1   
    44    20    45 1   
    45    21    22 2   
    46    21    46 1   
@<TRIPOS>SUBSTRUCTURE
     1 FAF         1 TEMP              0 ****  ****    0 ROOT
