@<TRIPOS>MOLECULE
molecule
    7     6     1     0     0
SMALL
bcc


@<TRIPOS>ATOM
      1 C            0.0000     0.0000     0.0000 c          1 FAH       0.868600
      2 F            0.1550    -0.0010     2.3680 f          1 FAH      -0.277300
      3 O            1.2080     0.0000     0.0000 o          1 FAH      -0.840300
      4 CH3         -0.7540     0.0000     1.3050 c3         1 FAH       0.044900
      5 OXT         -0.6710     0.0060    -1.1620 o          1 FAH      -0.840300
      6 HH3         -1.3760     0.8850     1.3620 h1         1 FAH       0.022700
      7 HH3A        -1.3780    -0.8840     1.3610 h1         1 FAH       0.022700
@<TRIPOS>BOND
     1     3     1 1
     2     5     1 1
     3     1     4 1
     4     4     2 1
     5     4     6 1
     6     4     7 1
@<TRIPOS>SUBSTRUCTURE
     1 FAH         1 TEMP              0 ****  ****    0 ROOT
