@<TRIPOS>MOLECULE
FAH
    7     6     1     0     0
SMALL
bcc


@<TRIPOS>ATOM
      1 C           0.0290    0.0000   -0.0470 c         1 FAH      0.896600
      2 F           0.0810    0.0020    2.4210 f         1 FAH     -0.275300
      3 O           1.2870   -0.0070   -0.0530 o         1 FAH     -0.834800
      4 CH3        -0.7320    0.0010    1.3040 c3        1 FAH      0.025900
      5 OXT        -0.7020    0.0070   -1.0790 o         1 FAH     -0.834800
      6 HH3        -1.3880   -0.9100    1.3450 h1        1 FAH      0.010700
      7 HH3A       -1.3890    0.9120    1.3430 h1        1 FAH      0.010700
@<TRIPOS>BOND
     1    1    3 1   
     2    1    4 1   
     3    1    5 1   
     4    2    4 1   
     5    4    6 1   
     6    4    7 1   
@<TRIPOS>SUBSTRUCTURE
     1 FAH         1 TEMP              0 ****  ****    0 ROOT
