@<TRIPOS>MOLECULE
FAL
   54    53     1     0     0
SMALL
bcc


@<TRIPOS>ATOM
      1 C22        -0.5120   -0.0360    1.3000 c3        1 FAL     -0.106000
      2 N1         -5.9700   -3.4020   -1.5110 n2        1 FAL     -0.252000
      3 C2         -7.4310   -3.1060   -4.7670 c1        1 FAL      0.321000
      4 C6         -6.4480   -2.2940   -1.0440 c2        1 FAL      0.182000
      5 C4         -8.1000   -1.7910   -2.7230 c2        1 FAL      0.313000
      6 C3         -7.8950   -3.0080   -3.5370 c2        1 FAL     -0.546000
      7 N5         -7.4550   -1.4780   -1.6110 n2        1 FAL     -0.306000
      8 C11       -10.5420    2.7640   -1.7460 c2        1 FAL     -0.234000
      9 C10       -11.4060    1.9570   -2.5070 c1        1 FAL     -0.030000
     10 C9        -10.9660    0.6320   -2.9450 c3        1 FAL     -0.109000
     11 C8         -9.5000    0.2870   -2.7410 c2        1 FAL      0.063000
     12 C12        -9.2180    2.4320   -1.6080 c2        1 FAL      0.063000
     13 C17        -2.9620    0.1720   -0.7250 c2        1 FAL      0.025000
     14 C16        -4.1230   -0.5600   -0.7880 c2        1 FAL     -0.303000
     15 C13        -8.6910    1.1860   -2.1020 c2        1 FAL     -0.202000
     16 C15        -4.9630   -0.8510    0.3230 c2        1 FAL      0.269000
     17 C18        -2.4890    0.9090    0.3460 c1        1 FAL      0.027000
     18 C19        -4.7990   -0.7630    2.8050 c2        1 FAL     -0.108000
     19 C20        -4.6980   -0.1840    1.6070 c2        1 FAL     -0.254000
     20 O21        -1.5590    0.9960    1.1950 os        1 FAL      0.008000
     21 N7         -9.0870   -0.9540   -3.2320 n3        1 FAL     -0.257000
     22 CL30       -8.1160    3.4810   -0.8650 cl        1 FAL      0.022000
     23 C23         0.5290    0.2070    0.2110 c3        1 FAL      0.010000
     24 C24         1.6860   -0.7990    0.3830 c3        1 FAL     -0.099000
     25 N25         2.7300   -0.5680   -0.5790 n3        1 FAL     -0.375000
     26 C26         4.8190    2.2010   -0.3400 c2        1 FAL     -0.224500
     27 C27         3.7880    2.6030    0.3930 c2        1 FAL     -0.224500
     28 O28        -0.1540    0.0370   -1.0240 oh        1 FAL     -0.376000
     29 H221       -0.9780   -1.0470    1.2150 h1        1 FAL      0.133000
     30 H222       -4.5950   -0.2030    3.7320 ha        1 FAL      0.144500
     31 H2         -5.2540   -3.8730   -1.0030 hn        1 FAL      0.185000
     32 H3         -8.1180   -3.9640   -3.0050 ha        1 FAL      0.239000
     33 H10       -11.5980   -0.1050   -2.3590 h1        1 FAL      0.184000
     34 H17        -2.4290    0.4090   -1.6810 ha        1 FAL      0.215000
     35 H16        -4.4310   -0.9280   -1.7850 ha        1 FAL      0.176000
     36 H13        -7.6170    1.0000   -1.9430 ha        1 FAL      0.165000
     37 H19        -5.0680   -1.8200    2.9530 ha        1 FAL      0.144500
     38 H20        -4.4180    0.8880    1.5050 ha        1 FAL      0.193000
     39 H7         -9.6260   -1.3260   -3.9920 hn        1 FAL      0.274000
     40 H23        -0.0890    0.1480    2.3210 h1        1 FAL      0.133000
     41 H241        1.2760   -1.8370    0.2230 h1        1 FAL      0.084000
     42 H242        0.9080    1.2670    0.2730 h1        1 FAL      0.113000
     43 H261        2.0380   -0.7270    1.4540 h1        1 FAL      0.084000
     44 H262        4.7430    2.0160   -1.4210 ha        1 FAL      0.113750
     45 H263        5.8210    2.0420    0.0820 ha        1 FAL      0.113750
     46 H271        2.7920    2.7810   -0.0340 ha        1 FAL      0.113750
     47 H272        3.3420   -1.3550   -0.6450 hn        1 FAL      0.173000
     48 H273        3.8690    2.8080    1.4690 ha        1 FAL      0.113750
     49 H28         0.5130   -0.0450   -1.7200 ho        1 FAL      0.254000
     50 CL29      -11.4150    0.4190   -4.6370 cl        1 FAL     -0.030000
     51 H251        3.2550    0.2610   -0.3690 hn        1 FAL      0.173000
     52 N14        -5.9950   -1.7100    0.2390 n3        1 FAL     -0.236000
     53 H11       -10.9480    3.7030   -1.3300 ha        1 FAL      0.182000
     54 H14        -6.6520   -1.7590    0.9940 hn        1 FAL      0.268000
@<TRIPOS>BOND
     1    1   20 1   
     2    1   23 1   
     3    1   29 1   
     4    1   40 1   
     5    2    4 1   
     6    2   31 1   
     7    3    6 1   
     8    4    7 1   
     9    4   52 1   
    10    5    6 1   
    11    5    7 1   
    12    5   21 1   
    13    6   32 1   
    14    8    9 1   
    15    8   12 1   
    16    8   53 1   
    17    9   10 1   
    18   10   11 1   
    19   10   33 1   
    20   10   50 1   
    21   11   15 1   
    22   11   21 1   
    23   12   15 1   
    24   12   22 1   
    25   13   14 1   
    26   13   17 1   
    27   13   34 1   
    28   14   16 1   
    29   14   35 1   
    30   15   36 1   
    31   16   19 1   
    32   16   52 1   
    33   17   20 1   
    34   18   19 1   
    35   18   30 1   
    36   18   37 1   
    37   19   38 1   
    38   21   39 1   
    39   23   24 1   
    40   23   28 1   
    41   23   42 1   
    42   24   25 1   
    43   24   41 1   
    44   24   43 1   
    45   25   47 1   
    46   25   51 1   
    47   26   27 1   
    48   26   44 1   
    49   26   45 1   
    50   27   46 1   
    51   27   48 1   
    52   28   49 1   
    53   52   54 1   
@<TRIPOS>SUBSTRUCTURE
     1 FAL         1 TEMP              0 ****  ****    0 ROOT
