@<TRIPOS>MOLECULE
FAN
   16    16     1     0     0
SMALL
bcc


@<TRIPOS>ATOM
      1 C1           0.0000     0.0000     0.0000 ca         1 FAN      -0.082500
      2 C2           1.3810     0.0000     0.0000 ca         1 FAN      -0.117000
      3 C3           2.0730     0.0000     1.2030 ca         1 FAN      -0.090400
      4 C4           1.3750    -0.0080     2.4020 ca         1 FAN      -0.117000
      5 C5          -0.0060    -0.0020     2.3950 ca         1 FAN      -0.082500
      6 C6          -0.6920    -0.0020     1.1960 ca         1 FAN      -0.114000
      7 C7           4.1430     0.6400     2.1850 c          1 FAN       0.603900
      8 N1           3.4730     0.0010     1.2060 ns         1 FAN      -0.064100
      9 O1           3.5390     1.2940     3.0060 o          1 FAN      -0.634100
     10 H1          -0.5410     0.0000    -0.9380 ha         1 FAN       0.102500
     11 H2           1.9240     0.0040    -0.9380 ha         1 FAN       0.120500
     12 H4           1.9130    -0.0080     3.3430 ha         1 FAN       0.120500
     13 H5          -0.5520    -0.0060     3.3310 ha         1 FAN       0.102500
     14 H6          -1.7750     0.0000     1.1930 ha         1 FAN       0.102000
     15 H7           5.2250     0.5880     2.2230 h5         1 FAN      -0.019800
     16 HN1          3.9750    -0.4970     0.4980 hn         1 FAN       0.168500
@<TRIPOS>BOND
     1     1     2 ar  
     2     1     6 ar  
     3     1    10 1   
     4     2     3 ar  
     5     2    11 1   
     6     3     4 ar  
     7     3     8 1   
     8     4     5 ar  
     9     4    12 1   
    10     5     6 ar  
    11     5    13 1   
    12     6    14 1   
    13     7     8 1   
    14     7     9 2   
    15     7    15 1   
    16     8    16 1   
@<TRIPOS>SUBSTRUCTURE
     1 FAN         1 TEMP              0 ****  ****    0 ROOT
