@<TRIPOS>MOLECULE
molecule
   53    55     1     0     0
SMALL
bcc


@<TRIPOS>ATOM
      1 C22          0.0000     0.0000     0.0000 ca         1 FAP      -0.107500
      2 C1           4.8450     2.1290    -0.4250 ca         1 FAP       0.753900
      3 C5           3.2820     0.6940    -1.3250 ca         1 FAP       0.750200
      4 C4           4.0490     0.5980    -2.4820 ca         1 FAP      -0.498600
      5 C3           5.2390     1.3170    -2.5460 ca         1 FAP       0.757200
      6 C17          1.3890     0.0000     0.0000 ca         1 FAP       0.122600
      7 C18          2.0820     0.0000     1.2020 ca         1 FAP      -0.107500
      8 C19          1.3910     0.0010     2.3970 ca         1 FAP      -0.174500
      9 C20          0.0030     0.0020     2.3970 ca         1 FAP       0.104100
     10 N2           5.5980     2.0640    -1.5030 nb         1 FAP      -0.834000
     11 N6           3.7080     1.4680    -0.3290 nb         1 FAP      -0.830000
     12 N7           6.0380     1.2560    -3.6770 nu         1 FAP      -0.771300
     13 N16          2.0880    -0.0020    -1.2120 nu         1 FAP      -0.766300
     14 C21         -0.6900    -0.0050     1.1960 ca         1 FAP      -0.174500
     15 O23         -0.6770     0.0030     3.5750 os         1 FAP      -0.295900
     16 C24         -2.0670     0.0030     3.2490 c3         1 FAP       0.098400
     17 C11          4.8830    -1.0930    -6.9230 ca         1 FAP      -0.084000
     18 C10          5.0600     0.2690    -7.0850 ca         1 FAP      -0.175500
     19 C9           5.4430     1.0520    -6.0100 ca         1 FAP       0.146900
     20 C8           5.6500     0.4680    -4.7670 ca         1 FAP       0.069600
     21 C12          5.0890    -1.6770    -5.6870 ca         1 FAP      -0.175500
     22 C13          5.4780    -0.9020    -4.6090 ca         1 FAP       0.146900
     23 F15          5.6790    -1.4740    -3.4020 f          1 FAP      -0.121900
     24 C25         -2.8940     0.0050     4.5350 c3         1 FAP       0.148100
     25 C26         -4.3830     0.0050     4.1870 c3         1 FAP       0.127800
     26 N27         -5.1750     0.0060     5.4230 n3         1 FAP      -0.656600
     27 C28         -6.5880     0.0060     5.0190 c3         1 FAP       0.120100
     28 C29         -4.9270    -1.2810     6.0850 c3         1 FAP       0.120100
     29 O30         -2.5840     1.1720     5.2990 oh         1 FAP      -0.580800
     30 H22         -0.5420    -0.0020    -0.9380 ha         1 FAP       0.144500
     31 H1L          5.1650     2.7490     0.4040 h5         1 FAP       0.061100
     32 H4           3.7280    -0.0220    -3.3110 ha         1 FAP       0.143000
     33 H18          3.1650    -0.0000     1.2030 ha         1 FAP       0.144500
     34 H19          1.9320     0.0030     3.3350 ha         1 FAP       0.143000
     35 H7           6.9130     1.7420    -3.6970 hn         1 FAP       0.470800
     36 H16          1.7310    -0.5120    -1.9950 hn         1 FAP       0.455800
     37 H21         -1.7730    -0.0040     1.1960 ha         1 FAP       0.143000
     38 H241        -2.3020    -0.8820     2.6700 h1         1 FAP       0.048700
     39 H242        -2.3020     0.8870     2.6680 h1         1 FAP       0.048700
     40 H11          4.5810    -1.7030    -7.7660 ha         1 FAP       0.147000
     41 H10          4.8980     0.7240    -8.0550 ha         1 FAP       0.154500
     42 H12          4.9520    -2.7450    -5.5650 ha         1 FAP       0.154500
     43 H25         -2.6600    -0.8790     5.1160 h1         1 FAP       0.041700
     44 H261        -4.6190    -0.8800     3.6080 h1         1 FAP       0.045200
     45 H262        -4.6180     0.8890     3.6060 h1         1 FAP       0.045200
     46 H281        -6.7880    -0.8640     4.4060 h1         1 FAP       0.035200
     47 H282        -7.2160    -0.0210     5.9010 h1         1 FAP       0.035200
     48 H283        -6.8020     0.9040     4.4520 h1         1 FAP       0.035200
     49 H291        -5.6780    -1.4440     6.8490 h1         1 FAP       0.035200
     50 H292        -3.9450    -1.2680     6.5420 h1         1 FAP       0.035200
     51 H293        -4.9760    -2.0780     5.3540 h1         1 FAP       0.035200
     52 H30         -2.1300     0.9200     6.0870 ho         1 FAP       0.408000
     53 F14          5.6140     2.3820    -6.1710 f          1 FAP      -0.121900
@<TRIPOS>BOND
     1     1     6 ar
     2     1    14 ar
     3     1    30 1
     4     2    10 ar
     5     2    11 ar
     6     2    31 1
     7     3     4 ar
     8     3    11 ar
     9     3    13 1
    10     4     5 ar
    11     4    32 1
    12     5    10 ar
    13     5    12 1
    14     6     7 ar
    15     6    13 1
    16     7     8 ar
    17     7    33 1
    18     8     9 ar
    19     8    34 1
    20     9    14 ar
    21     9    15 1
    22    12    20 1
    23    12    35 1
    24    13    36 1
    25    14    37 1
    26    15    16 1
    27    16    24 1
    28    16    38 1
    29    16    39 1
    30    17    18 ar
    31    17    21 ar
    32    17    40 1
    33    18    19 ar
    34    18    41 1
    35    19    20 ar
    36    19    53 1
    37    20    22 ar
    38    21    22 ar
    39    21    42 1
    40    22    23 1
    41    24    25 1
    42    24    29 1
    43    24    43 1
    44    25    26 1
    45    25    44 1
    46    25    45 1
    47    26    27 1
    48    26    28 1
    49    27    46 1
    50    27    47 1
    51    27    48 1
    52    28    49 1
    53    28    50 1
    54    28    51 1
    55    29    52 1
@<TRIPOS>SUBSTRUCTURE
     1 FAP         1 TEMP              0 ****  ****    0 ROOT
