@<TRIPOS>MOLECULE
FAR
   41    40     1     0     0
SMALL
bcc


@<TRIPOS>ATOM
      1 C1         -0.5910   -0.3550    0.4960 c3        1 FAR     -0.061900
      2 C2          0.8590   -0.4660    0.7430 c2        1 FAR     -0.174200
      3 C3          1.5670    0.4070    1.4780 c2        1 FAR     -0.122400
      4 C5          3.0310    0.2280    1.6980 c3        1 FAR     -0.040200
      5 C6          3.8480    1.1650    0.8250 c3        1 FAR     -0.043200
      6 C7          5.3030    1.0120    1.0580 c2        1 FAR     -0.174200
      7 C8          6.2390    1.6150    0.3070 c2        1 FAR     -0.124400
      8 C9          7.6920    1.4440    0.5930 c3        1 FAR     -0.038200
      9 C11         8.3880    0.6490   -0.4970 c3        1 FAR     -0.043200
     10 C12         9.8420    0.5220   -0.2500 c2        1 FAR     -0.177200
     11 C13        10.6560   -0.2370   -1.0010 c2        1 FAR     -0.124400
     12 C14        12.1090   -0.3350   -0.7250 c3        1 FAR     -0.057900
     13 C15        10.1590   -1.0290   -2.1510 c3        1 FAR     -0.057900
     14 C4          0.9440    1.5810    2.1360 c3        1 FAR     -0.058900
     15 C10         5.8880    2.4880   -0.8390 c3        1 FAR     -0.058900
     16 H11        -1.1360   -0.0450    1.4230 hc        1 FAR      0.040033
     17 H12A       -1.0110   -1.3310    0.1500 hc        1 FAR      0.040033
     18 H13        -0.7910    0.4130   -0.2950 hc        1 FAR      0.040033
     19 H2          1.3580   -1.3290    0.2730 ha        1 FAR      0.120000
     20 H51         3.3300   -0.8320    1.4790 hc        1 FAR      0.046200
     21 H52         3.2670    0.4240    2.7780 hc        1 FAR      0.046200
     22 H61         3.5470    2.2290    1.0320 hc        1 FAR      0.050200
     23 H62         3.6140    0.9680   -0.2570 hc        1 FAR      0.050200
     24 H7          5.5930    0.3660    1.9030 ha        1 FAR      0.123000
     25 H91         7.8390    0.9250    1.5780 hc        1 FAR      0.045700
     26 H92         8.1680    2.4580    0.6780 hc        1 FAR      0.045700
     27 H111        8.2190    1.1500   -1.4910 hc        1 FAR      0.049700
     28 H112        7.9250   -0.3730   -0.5700 hc        1 FAR      0.049700
     29 H12        10.2420    1.0970    0.6020 ha        1 FAR      0.122000
     30 H141       12.3950   -1.4030   -0.5480 hc        1 FAR      0.040533
     31 H142       12.4010    0.2610    0.1730 hc        1 FAR      0.040533
     32 H143       12.6930    0.0400   -1.6030 hc        1 FAR      0.040533
     33 H151       11.0010   -1.4830   -2.7270 hc        1 FAR      0.040533
     34 H152        9.5630   -0.3830   -2.8440 hc        1 FAR      0.040533
     35 H153        9.4910   -1.8530   -1.7920 hc        1 FAR      0.040533
     36 H41         0.1980    2.0660    1.4580 hc        1 FAR      0.041033
     37 H42         1.7120    2.3410    2.4180 hc        1 FAR      0.041033
     38 H43         0.4100    1.2580    3.0650 hc        1 FAR      0.041033
     39 H101        6.7800    3.0450   -1.2150 hc        1 FAR      0.041367
     40 H102        5.4760    1.8730   -1.6790 hc        1 FAR      0.041367
     41 H103        5.1050    3.2300   -0.5410 hc        1 FAR      0.041367
@<TRIPOS>BOND
     1    1    2 1   
     2    1   16 1   
     3    1   17 1   
     4    1   18 1   
     5    2    3 2   
     6    2   19 1   
     7    3    4 1   
     8    3   14 1   
     9    4    5 1   
    10    4   20 1   
    11    4   21 1   
    12    5    6 1   
    13    5   22 1   
    14    5   23 1   
    15    6    7 2   
    16    6   24 1   
    17    7    8 1   
    18    7   15 1   
    19    8    9 1   
    20    8   25 1   
    21    8   26 1   
    22    9   10 1   
    23    9   27 1   
    24    9   28 1   
    25   10   11 2   
    26   10   29 1   
    27   11   12 1   
    28   11   13 1   
    29   12   30 1   
    30   12   31 1   
    31   12   32 1   
    32   13   33 1   
    33   13   34 1   
    34   13   35 1   
    35   14   36 1   
    36   14   37 1   
    37   14   38 1   
    38   15   39 1   
    39   15   40 1   
    40   15   41 1   
@<TRIPOS>SUBSTRUCTURE
     1 FAR         1 TEMP              0 ****  ****    0 ROOT
