@<TRIPOS>MOLECULE
molecule
   41    40     1     0     0
SMALL
bcc


@<TRIPOS>ATOM
      1 C1           0.0000     0.0000     0.0000 c3         1 FAR      -0.056900
      2 C2           1.5070     0.0000     0.0000 c2         1 FAR      -0.182200
      3 C3           2.1620     0.0000     1.1330 c2         1 FAR      -0.134400
      4 C5           3.6690    -0.0000     1.1320 c3         1 FAR      -0.034200
      5 C6           4.1790     1.4410     1.1320 c3         1 FAR      -0.045200
      6 C7           5.6860     1.4410     1.1320 c2         1 FAR      -0.181200
      7 C8           6.3410     2.1330     0.2320 c2         1 FAR      -0.131400
      8 C9           7.8380     2.0040     0.1260 c3         1 FAR      -0.035200
      9 C11          8.1850     0.8820    -0.8540 c3         1 FAR      -0.044200
     10 C12          9.6840     0.7530    -0.9590 c2         1 FAR      -0.184200
     11 C13         10.2550    -0.4110    -0.7810 c2         1 FAR      -0.132400
     12 C14         11.7570    -0.5130    -0.7220 c3         1 FAR      -0.051900
     13 C15          9.4110    -1.6510    -0.6360 c3         1 FAR      -0.051900
     14 C4           1.4090     0.0000     2.4380 c3         1 FAR      -0.050900
     15 C10          5.5970     3.0560    -0.6970 c3         1 FAR      -0.051900
     16 H11         -0.3610     0.0570    -1.0200 hc         1 FAR       0.039033
     17 H12A        -0.3610     0.8550     0.5590 hc         1 FAR       0.039033
     18 H13         -0.3610    -0.9120     0.4600 hc         1 FAR       0.039033
     19 H2           2.0480    -0.0000    -0.9380 ha         1 FAR       0.124000
     20 H51          4.0310    -0.5110     2.0170 hc         1 FAR       0.046700
     21 H52          4.0300    -0.5110     0.2480 hc         1 FAR       0.046700
     22 H61          3.8180     1.9520     2.0160 hc         1 FAR       0.050700
     23 H62          3.8180     1.9520     0.2470 hc         1 FAR       0.050700
     24 H7           6.2240     0.7780     1.7990 ha         1 FAR       0.124000
     25 H91          8.2500     1.7740     1.1010 hc         1 FAR       0.047200
     26 H92          8.2560     2.9380    -0.2320 hc         1 FAR       0.047200
     27 H111         7.7670    -0.0520    -0.4960 hc         1 FAR       0.050200
     28 H112         7.7730     1.1120    -1.8280 hc         1 FAR       0.050200
     29 H12         10.2930     1.6420    -1.0640 ha         1 FAR       0.124000
     30 H141        12.1090    -1.1310    -1.5390 hc         1 FAR       0.040533
     31 H142        12.1900     0.4770    -0.8060 hc         1 FAR       0.040533
     32 H143        12.0520    -0.9570     0.2210 hc         1 FAR       0.040533
     33 H151         8.9110    -1.6370     0.3260 hc         1 FAR       0.040533
     34 H152         8.6710    -1.6780    -1.4270 hc         1 FAR       0.040533
     35 H153        10.0430    -2.5280    -0.7020 hc         1 FAR       0.040533
     36 H41          2.1080    -0.1090     3.2590 hc         1 FAR       0.040367
     37 H42          0.7060    -0.8240     2.4500 hc         1 FAR       0.040367
     38 H43          0.8710     0.9350     2.5450 hc         1 FAR       0.040367
     39 H101         5.0400     2.4700    -1.4180 hc         1 FAR       0.041033
     40 H102         4.9120     3.6700    -0.1240 hc         1 FAR       0.041033
     41 H103         6.3040     3.6920    -1.2160 hc         1 FAR       0.041033
@<TRIPOS>BOND
     1     1     2 1
     2     1    16 1
     3     1    17 1
     4     1    18 1
     5     2     3 2
     6     2    19 1
     7     3     4 1
     8     3    14 1
     9     4     5 1
    10     4    20 1
    11     4    21 1
    12     5     6 1
    13     5    22 1
    14     5    23 1
    15     6     7 2
    16     6    24 1
    17     7     8 1
    18     7    15 1
    19     8     9 1
    20     8    25 1
    21     8    26 1
    22     9    10 1
    23     9    27 1
    24     9    28 1
    25    10    11 2
    26    10    29 1
    27    11    12 1
    28    11    13 1
    29    12    30 1
    30    12    31 1
    31    12    32 1
    32    13    33 1
    33    13    34 1
    34    13    35 1
    35    14    36 1
    36    14    37 1
    37    14    38 1
    38    15    39 1
    39    15    40 1
    40    15    41 1
@<TRIPOS>SUBSTRUCTURE
     1 FAR         1 TEMP              0 ****  ****    0 ROOT
