@<TRIPOS>MOLECULE
molecule
   49    48     1     0     0
SMALL
bcc


@<TRIPOS>ATOM
      1 C1           0.0000     0.0000     0.0000 c          1 FAT       0.890600
      2 OE1          1.2080     0.0000     0.0000 o          1 FAT      -0.858300
      3 OE2         -0.6700     0.0000     1.1630 o          1 FAT      -0.858300
      4 C2          -0.7530    -0.0030    -1.3040 c3         1 FAT      -0.182400
      5 C3           0.2390    -0.0030    -2.4690 c3         1 FAT      -0.064400
      6 C4          -0.5250    -0.0050    -3.7930 c3         1 FAT      -0.088400
      7 C5           0.4670    -0.0060    -4.9560 c3         1 FAT      -0.081400
      8 C6          -0.2970    -0.0080    -6.2810 c3         1 FAT      -0.083400
      9 C7           0.6960    -0.0090    -7.4440 c3         1 FAT      -0.082400
     10 C8          -0.0690    -0.0110    -8.7670 c3         1 FAT      -0.082400
     11 C9           0.9240    -0.0120    -9.9310 c3         1 FAT      -0.082400
     12 C10          0.1590    -0.0140   -11.2560 c3         1 FAT      -0.082400
     13 C11          1.1530    -0.0150   -12.4200 c3         1 FAT      -0.082400
     14 C12          0.3880    -0.0170   -13.7440 c3         1 FAT      -0.082400
     15 C13          1.3810    -0.0180   -14.9070 c3         1 FAT      -0.082400
     16 C14          0.6160    -0.0200   -16.2320 c3         1 FAT      -0.081400
     17 C15          1.6080    -0.0210   -17.3950 c3         1 FAT      -0.084400
     18 C16          0.8440    -0.0230   -18.7200 c3         1 FAT      -0.092100
     19 H21         -1.3770     0.8810    -1.3630 hc         1 FAT       0.026700
     20 H22         -1.3750    -0.8880    -1.3600 hc         1 FAT       0.026700
     21 H31          0.8630    -0.8870    -2.4110 hc         1 FAT       0.044700
     22 H32          0.8620     0.8820    -2.4120 hc         1 FAT       0.044700
     23 H41         -1.1480     0.8790    -3.8510 hc         1 FAT       0.028700
     24 H42         -1.1480    -0.8890    -3.8490 hc         1 FAT       0.028700
     25 H51          1.0900     0.8780    -4.9000 hc         1 FAT       0.038700
     26 H52          1.0900    -0.8910    -4.8980 hc         1 FAT       0.038700
     27 H61         -0.9200    -0.8930    -6.3380 hc         1 FAT       0.035700
     28 H62         -0.9210     0.8760    -6.3390 hc         1 FAT       0.035700
     29 H71          1.3180     0.8770    -7.3880 hc         1 FAT       0.039700
     30 H72          1.3200    -0.8920    -7.3860 hc         1 FAT       0.039700
     31 H81         -0.6930     0.8720    -8.8260 hc         1 FAT       0.038700
     32 H82         -0.6910    -0.8970    -8.8230 hc         1 FAT       0.038700
     33 H91          1.5480    -0.8960    -9.8730 hc         1 FAT       0.039700
     34 H92          1.5470     0.8730    -9.8750 hc         1 FAT       0.039700
     35 H101        -0.4640    -0.8980   -11.3120 hc         1 FAT       0.039700
     36 H102        -0.4640     0.8710   -11.3140 hc         1 FAT       0.039700
     37 H111         1.7750    -0.9000   -12.3610 hc         1 FAT       0.040700
     38 H112         1.7750     0.8690   -12.3640 hc         1 FAT       0.040700
     39 H121        -0.2360     0.8670   -13.8020 hc         1 FAT       0.039700
     40 H122        -0.2350    -0.9020   -13.8000 hc         1 FAT       0.039700
     41 H131         2.0050    -0.9010   -14.8480 hc         1 FAT       0.040700
     42 H132         2.0030     0.8680   -14.8510 hc         1 FAT       0.040700
     43 H141        -0.0060    -0.9050   -16.2880 hc         1 FAT       0.040700
     44 H142        -0.0080     0.8630   -16.2910 hc         1 FAT       0.040700
     45 H151         2.2320    -0.9050   -17.3370 hc         1 FAT       0.039700
     46 H152         2.2310     0.8640   -17.3390 hc         1 FAT       0.039700
     47 H161         1.5490    -0.0230   -19.5430 hc         1 FAT       0.030700
     48 H162         0.2220    -0.9070   -18.7760 hc         1 FAT       0.030700
     49 H163         0.2210     0.8620   -18.7780 hc         1 FAT       0.030700
@<TRIPOS>BOND
     1     1     2 1
     2     1     3 1
     3     1     4 1
     4     4     5 1
     5     4    19 1
     6     4    20 1
     7     5     6 1
     8     5    21 1
     9     5    22 1
    10     6     7 1
    11     6    23 1
    12     6    24 1
    13     7     8 1
    14     7    25 1
    15     7    26 1
    16     8     9 1
    17     8    27 1
    18     8    28 1
    19     9    10 1
    20     9    29 1
    21     9    30 1
    22    10    11 1
    23    10    31 1
    24    10    32 1
    25    11    12 1
    26    11    33 1
    27    11    34 1
    28    12    13 1
    29    12    35 1
    30    12    36 1
    31    13    14 1
    32    13    37 1
    33    13    38 1
    34    14    15 1
    35    14    39 1
    36    14    40 1
    37    15    16 1
    38    15    41 1
    39    15    42 1
    40    16    17 1
    41    16    43 1
    42    16    44 1
    43    17    18 1
    44    17    45 1
    45    17    46 1
    46    18    47 1
    47    18    48 1
    48    18    49 1
@<TRIPOS>SUBSTRUCTURE
     1 FAT         1 TEMP              0 ****  ****    0 ROOT
