@<TRIPOS>MOLECULE
molecule
   38    41     1     0     0
SMALL
bcc


@<TRIPOS>ATOM
      1 C1           0.0000     0.0000     0.0000 ca         1 FAV      -0.158000
      2 N1          -4.2140    -0.4240     6.6590 n          1 FAV      -0.405000
      3 O1           2.0930    -0.0180     3.5710 os         1 FAV      -0.336900
      4 S1          -2.3150    -0.2350     4.1340 ss         1 FAV      -0.045800
      5 C2           1.3840     0.0000     0.0000 ca         1 FAV      -0.093000
      6 O2          -2.6440     0.3200     8.0450 o          1 FAV      -0.589100
      7 C3           2.0930     0.0000     1.1860 ca         1 FAV      -0.154000
      8 C4           1.4190    -0.0000     2.3960 ca         1 FAV       0.162100
      9 C5           0.0110     0.0140     2.3900 ca         1 FAV      -0.083000
     10 C6          -0.6920     0.0120     1.1960 ca         1 FAV      -0.085000
     11 C7           1.5770     0.6670     4.7130 c3         1 FAV       0.228700
     12 C8           0.0920     0.3670     4.8460 cc         1 FAV      -0.193300
     13 C9          -0.6470     0.0590     3.7110 cd         1 FAV       0.018900
     14 C10         -0.6490     0.3600     5.9940 cc         1 FAV      -0.055000
     15 C11         -1.9740     0.0600     5.8350 cd         1 FAV      -0.132700
     16 C12         -2.9590    -0.0050     6.9150 c          1 FAV       0.719700
     17 C13         -4.6030    -0.7010     5.3440 ca         1 FAV       0.020600
     18 C14         -4.4440    -1.9790     4.8250 ca         1 FAV      -0.105000
     19 C15         -4.8310    -2.2500     3.5270 ca         1 FAV      -0.128000
     20 C16         -5.3750    -1.2490     2.7440 ca         1 FAV      -0.111000
     21 C17         -5.5360     0.0260     3.2560 ca         1 FAV      -0.124000
     22 C18         -5.1580     0.3010     4.5570 ca         1 FAV       0.033400
     23 C19         -5.1690    -0.5900     7.7570 c3         1 FAV       0.113300
     24 Cl1         -5.3590     1.9010     5.2000 cl         1 FAV      -0.081400
     25 H1          -0.5410    -0.0000    -0.9380 ha         1 FAV       0.133000
     26 H2           1.9190    -0.0090    -0.9420 ha         1 FAV       0.134000
     27 H3           3.1760    -0.0000     1.1700 ha         1 FAV       0.146000
     28 H4          -1.7750     0.0120     1.2000 ha         1 FAV       0.134000
     29 H5          -0.2180     0.5780     6.9630 ha         1 FAV       0.166000
     30 H6          -4.0180    -2.7640     5.4380 ha         1 FAV       0.154000
     31 H7          -4.7060    -3.2470     3.1220 ha         1 FAV       0.143000
     32 H8          -5.6750    -1.4630     1.7250 ha         1 FAV       0.141000
     33 H9          -5.9660     0.8060     2.6410 ha         1 FAV       0.151000
     34 H10         -5.2900     0.3530     8.2750 h1         1 FAV       0.048367
     35 H11         -4.7970    -1.3370     8.4480 h1         1 FAV       0.048367
     36 H12         -6.1240    -0.9100     7.3590 h1         1 FAV       0.048367
     37 H13          1.6940     1.7310     4.5510 h1         1 FAV       0.068200
     38 H14          2.0800     0.2830     5.5920 h1         1 FAV       0.068200
@<TRIPOS>BOND
     1     1     5 ar
     2     1    25 1
     3     2    16 1
     4     3    11 1
     5     4    15 1
     6     4    13 1
     7     5     7 ar
     8     5    26 1
     9     7    27 1
    10     8     3 1
    11     8     7 ar
    12     9     8 ar
    13    10     1 ar
    14    10     9 ar
    15    10    28 1
    16    12    11 1
    17    13    12 2
    18    14    12 1
    19    14    29 1
    20    15    14 2
    21    16     6 2
    22    16    15 1
    23    17     2 1
    24    17    18 ar
    25    18    30 1
    26    19    18 ar
    27    19    31 1
    28    20    19 ar
    29    20    32 1
    30    21    20 ar
    31    21    22 ar
    32    21    33 1
    33    22    17 ar
    34    23     2 1
    35    23    34 1
    36    23    35 1
    37    23    36 1
    38    24    22 1
    39    13     9 1
    40    11    37 1
    41    11    38 1
@<TRIPOS>SUBSTRUCTURE
     1 FAV         1 TEMP              0 ****  ****    0 ROOT
