@<TRIPOS>MOLECULE
FAV
   38    41     1     0     0
SMALL
bcc


@<TRIPOS>ATOM
      1 C1           0.0000     0.0000     0.0000 ca         1 FAV      -0.137000
      2 N1          -4.2140    -0.4240     6.6590 n          1 FAV      -0.030000
      3 O1           2.0930    -0.0180     3.5710 os         1 FAV      -0.318900
      4 S1          -2.3150    -0.2350     4.1340 ss         1 FAV      -0.212800
      5 C2           1.3840     0.0000     0.0000 ca         1 FAV      -0.060000
      6 O2          -2.6440     0.3200     8.0450 o          1 FAV      -0.636100
      7 C3           2.0930     0.0000     1.1860 ca         1 FAV      -0.138000
      8 C4           1.4190    -0.0000     2.3960 ca         1 FAV       0.171100
      9 C5           0.0110     0.0140     2.3900 ca         1 FAV      -0.084000
     10 C6          -0.6920     0.0120     1.1960 ca         1 FAV      -0.051000
     11 C7           1.5770     0.6670     4.7130 c3         1 FAV       0.317700
     12 C8           0.0920     0.3670     4.8460 cc         1 FAV      -0.209300
     13 C9          -0.6470     0.0590     3.7110 cd         1 FAV       0.093900
     14 C10         -0.6490     0.3600     5.9940 cc         1 FAV      -0.012000
     15 C11         -1.9740     0.0600     5.8350 cd         1 FAV      -0.084700
     16 C12         -2.9590    -0.0050     6.9150 c          1 FAV       0.644700
     17 C13         -4.6030    -0.7010     5.3440 ca         1 FAV      -0.110400
     18 C14         -4.4440    -1.9790     4.8250 ca         1 FAV      -0.062000
     19 C15         -4.8310    -2.2500     3.5270 ca         1 FAV      -0.098000
     20 C16         -5.3750    -1.2490     2.7440 ca         1 FAV      -0.072000
     21 C17         -5.5360     0.0260     3.2560 ca         1 FAV      -0.098000
     22 C18         -5.1580     0.3010     4.5570 ca         1 FAV      -0.021600
     23 C19         -5.1690    -0.5900     7.7570 c3         1 FAV       0.089300
     24 Cl1         -5.3590     1.9010     5.2000 cl         1 FAV      -0.000400
     25 H1          -0.5410    -0.0000    -0.9380 ha         1 FAV       0.107000
     26 H2           1.9190    -0.0090    -0.9420 ha         1 FAV       0.102000
     27 H3           3.1760    -0.0000     1.1700 ha         1 FAV       0.118000
     28 H4          -1.7750     0.0120     1.2000 ha         1 FAV       0.111000
     29 H5          -0.2180     0.5780     6.9630 ha         1 FAV       0.136000
     30 H6          -4.0180    -2.7640     5.4380 ha         1 FAV       0.118000
     31 H7          -4.7060    -3.2470     3.1220 ha         1 FAV       0.111000
     32 H8          -5.6750    -1.4630     1.7250 ha         1 FAV       0.107000
     33 H9          -5.9660     0.8060     2.6410 ha         1 FAV       0.119000
     34 H10         -5.2900     0.3530     8.2750 h1         1 FAV       0.015700
     35 H11         -4.7970    -1.3370     8.4480 h1         1 FAV       0.015700
     36 H12         -6.1240    -0.9100     7.3590 h1         1 FAV       0.015700
     37 H13          1.6940     1.7310     4.5510 h1         1 FAV       0.022200
     38 H14          2.0800     0.2830     5.5920 h1         1 FAV       0.022200
@<TRIPOS>BOND
     1     1     5 ar  
     2     1    10 ar  
     3     1    25 1   
     4     2    16 1   
     5     2    17 1   
     6     2    23 1   
     7     3     8 1   
     8     3    11 1   
     9     4    13 1   
    10     4    15 1   
    11     5     7 ar  
    12     5    26 1   
    13     6    16 2   
    14     7     8 ar  
    15     7    27 1   
    16     8     9 ar  
    17     9    10 ar  
    18     9    13 1   
    19    10    28 1   
    20    11    12 1   
    21    11    37 1   
    22    11    38 1   
    23    12    13 2   
    24    12    14 1   
    25    14    15 2   
    26    14    29 1   
    27    15    16 1   
    28    17    18 ar  
    29    17    22 ar  
    30    18    19 ar  
    31    18    30 1   
    32    19    20 ar  
    33    19    31 1   
    34    20    21 ar  
    35    20    32 1   
    36    21    22 ar  
    37    21    33 1   
    38    22    24 1   
    39    23    34 1   
    40    23    35 1   
    41    23    36 1   
@<TRIPOS>SUBSTRUCTURE
     1 FAV         1 TEMP              0 ****  ****    0 ROOT
