@<TRIPOS>MOLECULE
molecule
   96    95     1     0     0
SMALL
bcc


@<TRIPOS>ATOM
      1 OA1          0.0000     0.0000     0.0000 o          1 FAW      -0.564000
      2 CA1          1.2080     0.0000     0.0000 c          1 FAW       0.628100
      3 CA2          1.9620     0.0000     1.3060 c3         1 FAW      -0.123400
      4 CA3          0.9670     0.0060     2.4680 c3         1 FAW      -0.073400
      5 CA4          1.7310     0.0050     3.7930 c3         1 FAW      -0.084400
      6 CA5          0.7360     0.0110     4.9560 c3         1 FAW      -0.080400
      7 CA6          1.5010     0.0090     6.2820 c3         1 FAW      -0.082400
      8 CA7          0.5060     0.0150     7.4440 c3         1 FAW      -0.081400
      9 CA8          1.2710     0.0150     8.7690 c3         1 FAW      -0.082400
     10 CA9          0.2760     0.0200     9.9320 c3         1 FAW      -0.082400
     11 CAA          1.0410     0.0200    11.2570 c3         1 FAW      -0.081400
     12 CBA          0.0470     0.0260    12.4190 c3         1 FAW      -0.082400
     13 CCA          0.8110     0.0250    13.7450 c3         1 FAW      -0.081400
     14 C33         -0.1830     0.0300    14.9080 c3         1 FAW      -0.084400
     15 C34          0.5800     0.0290    16.2330 c3         1 FAW      -0.092100
     16 OG1          1.8800    -0.0040    -1.1620 os         1 FAW      -0.387900
     17 CG1          1.0890    -0.0090    -2.3800 c3         1 FAW       0.155400
     18 CG2          2.0220    -0.0130    -3.5930 c3         1 FAW       0.150100
     19 CG3          2.9890    -1.1950    -3.4890 c3         1 FAW       0.123400
     20 OXT          3.6790    -1.1350    -2.2390 oh         1 FAW      -0.582800
     21 OG2          2.7750     1.2270    -3.6290 os         1 FAW      -0.405900
     22 CB1          3.1400     1.6830    -4.8380 c          1 FAW       0.628100
     23 OB1          2.8420     1.0650    -5.8320 o          1 FAW      -0.560000
     24 CB2          3.9240     2.9650    -4.9540 c3         1 FAW      -0.125400
     25 CB3          4.2110     3.2560    -6.4280 c3         1 FAW      -0.073400
     26 CB4          5.0070     4.5570    -6.5460 c3         1 FAW      -0.084400
     27 CB5          5.2930     4.8480    -8.0210 c3         1 FAW      -0.080400
     28 CB6          6.0890     6.1490    -8.1390 c3         1 FAW      -0.082400
     29 CB7          6.3750     6.4400    -9.6130 c3         1 FAW      -0.081400
     30 CB8          7.1710     7.7410    -9.7320 c3         1 FAW      -0.082400
     31 CB9          7.4570     8.0320   -11.2060 c3         1 FAW      -0.082400
     32 CAB          8.2530     9.3340   -11.3240 c3         1 FAW      -0.082400
     33 CBB          8.5390     9.6240   -12.7990 c3         1 FAW      -0.082400
     34 CCB          9.3350    10.9260   -12.9160 c3         1 FAW      -0.081400
     35 C35          9.6210    11.2170   -14.3910 c3         1 FAW      -0.084400
     36 C36         10.4170    12.5180   -14.5080 c3         1 FAW      -0.092100
     37 H1           2.5820    -0.8870     1.3650 hc         1 FAW       0.072700
     38 H2           2.5880     0.8830     1.3610 hc         1 FAW       0.072700
     39 H3           0.3410    -0.8760     2.4120 hc         1 FAW       0.057700
     40 H4           0.3480     0.8920     2.4090 hc         1 FAW       0.057700
     41 H5           2.3570     0.8860     3.8500 hc         1 FAW       0.040700
     42 H6           2.3500    -0.8830     3.8530 hc         1 FAW       0.040700
     43 H7           0.1180     0.8980     4.8970 hc         1 FAW       0.043700
     44 H8           0.1090    -0.8710     4.9000 hc         1 FAW       0.043700
     45 H9           2.1270     0.8910     6.3380 hc         1 FAW       0.040700
     46 H10          2.1200    -0.8780     6.3410 hc         1 FAW       0.040700
     47 H11         -0.1140     0.9020     7.3850 hc         1 FAW       0.041700
     48 H12         -0.1200    -0.8670     7.3880 hc         1 FAW       0.041700
     49 H13          1.8910    -0.8720     8.8280 hc         1 FAW       0.040700
     50 H14          1.8970     0.8970     8.8250 hc         1 FAW       0.040700
     51 H15         -0.3430     0.9070     9.8730 hc         1 FAW       0.041700
     52 H16         -0.3500    -0.8620     9.8760 hc         1 FAW       0.041700
     53 H17          1.6670     0.9020    11.3130 hc         1 FAW       0.040700
     54 H18          1.6610    -0.8670    11.3160 hc         1 FAW       0.040700
     55 H19         -0.5730     0.9120    12.3600 hc         1 FAW       0.040700
     56 H20         -0.5800    -0.8570    12.3630 hc         1 FAW       0.040700
     57 H21          1.4310    -0.8620    13.8040 hc         1 FAW       0.040700
     58 H22          1.4370     0.9070    13.8010 hc         1 FAW       0.040700
     59 H23         -0.8100    -0.8520    14.8510 hc         1 FAW       0.039700
     60 H24         -0.8030     0.9170    14.8490 hc         1 FAW       0.039700
     61 H25         -0.1250     0.0330    17.0560 hc         1 FAW       0.032367
     62 H26          1.1990    -0.8570    16.2920 hc         1 FAW       0.032367
     63 H27          1.2060     0.9120    16.2900 hc         1 FAW       0.032367
     64 H28          0.4640    -0.8940    -2.4020 h1         1 FAW       0.059700
     65 H29          0.4640     0.8750    -2.4090 h1         1 FAW       0.059700
     66 H30          1.4360    -0.1060    -4.4990 h1         1 FAW       0.088700
     67 H31          3.7060    -1.1480    -4.3000 h1         1 FAW       0.033700
     68 H32          2.4340    -2.1230    -3.5510 h1         1 FAW       0.033700
     69 H33          4.4180    -1.7220    -2.2590 ho         1 FAW       0.395000
     70 H34          4.8600     2.8650    -4.4170 hc         1 FAW       0.074200
     71 H35          3.3500     3.7790    -4.5300 hc         1 FAW       0.074200
     72 H36          3.2750     3.3560    -6.9650 hc         1 FAW       0.057700
     73 H37          4.7850     2.4420    -6.8520 hc         1 FAW       0.057700
     74 H38          4.4320     5.3720    -6.1220 hc         1 FAW       0.041200
     75 H39          5.9430     4.4580    -6.0100 hc         1 FAW       0.041200
     76 H40          4.3570     4.9470    -8.5570 hc         1 FAW       0.043700
     77 H41          5.8670     4.0330    -8.4450 hc         1 FAW       0.043700
     78 H42          7.0250     6.0500    -7.6020 hc         1 FAW       0.041200
     79 H43          5.5150     6.9640    -7.7150 hc         1 FAW       0.041200
     80 H44          6.9500     5.6250   -10.0370 hc         1 FAW       0.041700
     81 H45          5.4390     6.5390   -10.1500 hc         1 FAW       0.041700
     82 H46          8.1070     7.6420    -9.1950 hc         1 FAW       0.040700
     83 H47          6.5970     8.5560    -9.3080 hc         1 FAW       0.040700
     84 H48          8.0320     7.2180   -11.6300 hc         1 FAW       0.041200
     85 H49          6.5210     8.1310   -11.7430 hc         1 FAW       0.041200
     86 H50          7.6770    10.1480   -10.9010 hc         1 FAW       0.040700
     87 H51          9.1880     9.2360   -10.7870 hc         1 FAW       0.040700
     88 H52          9.1150     8.8100   -13.2220 hc         1 FAW       0.040700
     89 H53          7.6040     9.7230   -13.3360 hc         1 FAW       0.040700
     90 H54          8.7590    11.7400   -12.4920 hc         1 FAW       0.040700
     91 H55         10.2700    10.8270   -12.3790 hc         1 FAW       0.040700
     92 H56          8.6850    11.3170   -14.9280 hc         1 FAW       0.039700
     93 H57         10.1960    10.4030   -14.8150 hc         1 FAW       0.039700
     94 H58         11.3530    12.4190   -13.9720 hc         1 FAW       0.032367
     95 H59         10.6200    12.7250   -15.5520 hc         1 FAW       0.032367
     96 H60          9.8420    13.3330   -14.0840 hc         1 FAW       0.032367
@<TRIPOS>BOND
     1    36    35 1
     2    35    34 1
     3    14    15 1
     4    14    13 1
     5    34    33 1
     6    33    32 1
     7    13    12 1
     8    32    31 1
     9    12    11 1
    10    10    11 1
    11    10     9 1
    12    31    30 1
    13     8     9 1
    14     8     7 1
    15    30    29 1
    16    29    28 1
    17     7     6 1
    18    28    27 1
    19    27    26 1
    20     6     5 1
    21     5     4 1
    22    26    25 1
    23    25    24 1
    24     4     3 1
    25     3     2 1
    26    24    22 1
    27    22    23 2
    28    22    21 1
    29     2    16 1
    30     2     1 2
    31    16    17 1
    32    21    18 1
    33    17    18 1
    34    18    19 1
    35    20    19 1
    36     3    37 1
    37     3    38 1
    38     4    39 1
    39     4    40 1
    40     5    41 1
    41     5    42 1
    42     6    43 1
    43     6    44 1
    44     7    45 1
    45     7    46 1
    46     8    47 1
    47     8    48 1
    48     9    49 1
    49     9    50 1
    50    10    51 1
    51    10    52 1
    52    11    53 1
    53    11    54 1
    54    12    55 1
    55    12    56 1
    56    13    57 1
    57    13    58 1
    58    14    59 1
    59    14    60 1
    60    15    61 1
    61    15    62 1
    62    15    63 1
    63    17    64 1
    64    17    65 1
    65    18    66 1
    66    19    67 1
    67    19    68 1
    68    20    69 1
    69    24    70 1
    70    24    71 1
    71    25    72 1
    72    25    73 1
    73    26    74 1
    74    26    75 1
    75    27    76 1
    76    27    77 1
    77    28    78 1
    78    28    79 1
    79    29    80 1
    80    29    81 1
    81    30    82 1
    82    30    83 1
    83    31    84 1
    84    31    85 1
    85    32    86 1
    86    32    87 1
    87    33    88 1
    88    33    89 1
    89    34    90 1
    90    34    91 1
    91    35    92 1
    92    35    93 1
    93    36    94 1
    94    36    95 1
    95    36    96 1
@<TRIPOS>SUBSTRUCTURE
     1 FAW         1 TEMP              0 ****  ****    0 ROOT
