@<TRIPOS>MOLECULE
molecule
   48    51     1     0     0
SMALL
bcc


@<TRIPOS>ATOM
      1 C1           0.0000     0.0000     0.0000 ca         1 FAZ       0.071600
      2 N1           5.2630     1.3570     6.7870 n          1 FAZ      -0.406000
      3 O1          -0.6580     0.1340     3.5860 os         1 FAZ      -0.348900
      4 S1           3.4500     0.8910     4.2360 ss         1 FAZ      -0.063800
      5 C2           1.3910     0.0000     0.0000 ca         1 FAZ      -0.176000
      6 N2          -0.6930    -0.0250    -1.2130 ns         1 FAZ      -0.482100
      7 O2           4.3110    -0.3050     7.9160 o          1 FAZ      -0.593100
      8 C3           2.0860     0.0000     1.1930 ca         1 FAZ      -0.086000
      9 O3          -2.3310     1.2220    -0.3840 o          1 FAZ      -0.586100
     10 C4           1.3860     0.0150     2.3920 ca         1 FAZ      -0.063000
     11 C5          -0.0230     0.0450     2.3960 ca         1 FAZ       0.156100
     12 C6          -0.7060     0.0190     1.1980 ca         1 FAZ      -0.145000
     13 C7           2.0670    -0.0410     3.7040 cc         1 FAZ       0.022900
     14 C8           1.6460    -0.8940     4.7040 cd         1 FAZ      -0.128300
     15 C9           0.4610    -1.8230     4.5090 c3         1 FAZ      -0.057100
     16 C10         -0.8320    -1.0180     4.4110 c3         1 FAZ       0.162400
     17 C11          3.4230     0.0990     5.8060 cc         1 FAZ      -0.129700
     18 C12          2.4000    -0.8030     5.8470 cd         1 FAZ      -0.064000
     19 C13          4.3550     0.3670     6.9010 c          1 FAZ       0.719700
     20 C14          5.2510     2.1900     5.6630 ca         1 FAZ       0.024600
     21 C15          4.4970     3.3560     5.6670 ca         1 FAZ      -0.103000
     22 C16          4.4880     4.1760     4.5550 ca         1 FAZ      -0.123000
     23 C17          5.2300     3.8370     3.4390 ca         1 FAZ      -0.110000
     24 C18          5.9830     2.6780     3.4300 ca         1 FAZ      -0.124000
     25 C19          6.0010     1.8550     4.5420 ca         1 FAZ       0.029400
     26 C20         -1.8490     0.6560    -1.3420 c          1 FAZ       0.656100
     27 C21         -2.5440     0.7140    -2.6780 c3         1 FAZ      -0.171100
     28 C22          6.2590     1.5620     7.8410 c3         1 FAZ       0.113300
     29 H1           1.9310    -0.0000    -0.9390 ha         1 FAZ       0.131000
     30 H2          -0.3230    -0.5350    -1.9900 hn         1 FAZ       0.324500
     31 H3           3.1690     0.0000     1.1930 ha         1 FAZ       0.140000
     32 H4          -1.7890     0.0190     1.1900 ha         1 FAZ       0.177000
     33 H5           0.5980    -2.3900     3.5960 hc         1 FAZ       0.058700
     34 H6           0.3960    -2.5000     5.3520 hc         1 FAZ       0.058700
     35 H7          -1.0860    -0.6770     5.4070 h1         1 FAZ       0.057200
     36 H8          -1.5800    -1.6480     3.9470 h1         1 FAZ       0.057200
     37 H9           2.1970    -1.4070     6.7230 ha         1 FAZ       0.164000
     38 H10          3.9150     3.6220     6.5410 ha         1 FAZ       0.153000
     39 H11          3.9000     5.0850     4.5580 ha         1 FAZ       0.143000
     40 H12          5.2200     4.4810     2.5680 ha         1 FAZ       0.141000
     41 H13          6.5650     2.4170     2.5550 ha         1 FAZ       0.149000
     42 H14         -2.8340    -0.2850    -2.9780 hc         1 FAZ       0.064033
     43 H15         -1.8710     1.1320    -3.4180 hc         1 FAZ       0.064033
     44 H16         -3.4260     1.3380    -2.6000 hc         1 FAZ       0.064033
     45 H17          6.9390     2.3520     7.5460 h1         1 FAZ       0.047367
     46 H18          6.8160     0.6460     7.9950 h1         1 FAZ       0.047367
     47 H19          5.7600     1.8400     8.7610 h1         1 FAZ       0.047367
     48 Cl1          6.9460     0.3990     4.5310 cl         1 FAZ      -0.084400
@<TRIPOS>BOND
     1     1    12 ar
     2     2    19 1
     3     4    17 1
     4     4    13 1
     5     5     1 ar
     6     5     8 ar
     7     5    29 1
     8     6     1 1
     9     6    30 1
    10     8    10 ar
    11     8    31 1
    12     9    26 2
    13    10    13 1
    14    10    11 ar
    15    11     3 1
    16    12    11 ar
    17    12    32 1
    18    13    14 2
    19    14    15 1
    20    15    33 1
    21    15    34 1
    22    16     3 1
    23    16    15 1
    24    16    35 1
    25    16    36 1
    26    17    18 2
    27    18    14 1
    28    18    37 1
    29    19     7 2
    30    19    17 1
    31    20     2 1
    32    20    21 ar
    33    21    38 1
    34    22    21 ar
    35    22    39 1
    36    23    22 ar
    37    23    40 1
    38    24    23 ar
    39    24    25 ar
    40    24    41 1
    41    25    20 ar
    42    26     6 1
    43    26    27 1
    44    27    42 1
    45    27    43 1
    46    27    44 1
    47    28     2 1
    48    28    45 1
    49    28    46 1
    50    28    47 1
    51    25    48 1
@<TRIPOS>SUBSTRUCTURE
     1 FAZ         1 TEMP              0 ****  ****    0 ROOT
