@<TRIPOS>MOLECULE
FAZ
   48    51     1     0     0
SMALL
bcc


@<TRIPOS>ATOM
      1 C1           0.0000     0.0000     0.0000 ca         1 FAZ      -0.069400
      2 N1           5.2630     1.3570     6.7870 n          1 FAZ      -0.030000
      3 O1          -0.6580     0.1340     3.5860 os         1 FAZ      -0.331900
      4 S1           3.4500     0.8910     4.2360 ss         1 FAZ      -0.229800
      5 C2           1.3910     0.0000     0.0000 ca         1 FAZ      -0.151000
      6 N2          -0.6930    -0.0250    -1.2130 ns         1 FAZ      -0.040100
      7 O2           4.3110    -0.3050     7.9160 o          1 FAZ      -0.639100
      8 C3           2.0860     0.0000     1.1930 ca         1 FAZ      -0.053000
      9 O3          -2.3310     1.2220    -0.3840 o          1 FAZ      -0.626100
     10 C4           1.3860     0.0150     2.3920 ca         1 FAZ      -0.059000
     11 C5          -0.0230     0.0450     2.3960 ca         1 FAZ       0.166100
     12 C6          -0.7060     0.0190     1.1980 ca         1 FAZ      -0.129000
     13 C7           2.0670    -0.0410     3.7040 cc         1 FAZ       0.094900
     14 C8           1.6460    -0.8940     4.7040 cd         1 FAZ      -0.135300
     15 C9           0.4610    -1.8230     4.5090 c3         1 FAZ       0.006900
     16 C10         -0.8320    -1.0180     4.4110 c3         1 FAZ       0.233400
     17 C11          3.4230     0.0990     5.8060 cc         1 FAZ      -0.081700
     18 C12          2.4000    -0.8030     5.8470 cd         1 FAZ      -0.023000
     19 C13          4.3550     0.3670     6.9010 c          1 FAZ       0.644700
     20 C14          5.2510     2.1900     5.6630 ca         1 FAZ      -0.108400
     21 C15          4.4970     3.3560     5.6670 ca         1 FAZ      -0.065000
     22 C16          4.4880     4.1760     4.5550 ca         1 FAZ      -0.095000
     23 C17          5.2300     3.8370     3.4390 ca         1 FAZ      -0.070000
     24 C18          5.9830     2.6780     3.4300 ca         1 FAZ      -0.098000
     25 C19          6.0010     1.8550     4.5420 ca         1 FAZ      -0.017600
     26 C20         -1.8490     0.6560    -1.3420 c          1 FAZ       0.558100
     27 C21         -2.5440     0.7140    -2.6780 c3         1 FAZ      -0.069100
     28 C22          6.2590     1.5620     7.8410 c3         1 FAZ       0.089300
     29 H1           1.9310    -0.0000    -0.9390 ha         1 FAZ       0.107000
     30 H2          -0.3230    -0.5350    -1.9900 hn         1 FAZ       0.168500
     31 H3           3.1690     0.0000     1.1930 ha         1 FAZ       0.113000
     32 H4          -1.7890     0.0190     1.1900 ha         1 FAZ       0.157000
     33 H5           0.5980    -2.3900     3.5960 hc         1 FAZ       0.026700
     34 H6           0.3960    -2.5000     5.3520 hc         1 FAZ       0.026700
     35 H7          -1.0860    -0.6770     5.4070 h1         1 FAZ       0.014700
     36 H8          -1.5800    -1.6480     3.9470 h1         1 FAZ       0.014700
     37 H9           2.1970    -1.4070     6.7230 ha         1 FAZ       0.135000
     38 H10          3.9150     3.6220     6.5410 ha         1 FAZ       0.117000
     39 H11          3.9000     5.0850     4.5580 ha         1 FAZ       0.110000
     40 H12          5.2200     4.4810     2.5680 ha         1 FAZ       0.107000
     41 H13          6.5650     2.4170     2.5550 ha         1 FAZ       0.117000
     42 H14         -2.8340    -0.2850    -2.9780 hc         1 FAZ       0.024367
     43 H15         -1.8710     1.1320    -3.4180 hc         1 FAZ       0.024367
     44 H16         -3.4260     1.3380    -2.6000 hc         1 FAZ       0.024367
     45 H17          6.9390     2.3520     7.5460 h1         1 FAZ       0.014700
     46 H18          6.8160     0.6460     7.9950 h1         1 FAZ       0.014700
     47 H19          5.7600     1.8400     8.7610 h1         1 FAZ       0.014700
     48 Cl1          6.9460     0.3990     4.5310 cl         1 FAZ      -0.004400
@<TRIPOS>BOND
     1     1     5 ar  
     2     1     6 1   
     3     1    12 ar  
     4     2    19 1   
     5     2    20 1   
     6     2    28 1   
     7     3    11 1   
     8     3    16 1   
     9     4    13 1   
    10     4    17 1   
    11     5     8 ar  
    12     5    29 1   
    13     6    26 1   
    14     6    30 1   
    15     7    19 2   
    16     8    10 ar  
    17     8    31 1   
    18     9    26 2   
    19    10    11 ar  
    20    10    13 1   
    21    11    12 ar  
    22    12    32 1   
    23    13    14 2   
    24    14    15 1   
    25    14    18 1   
    26    15    16 1   
    27    15    33 1   
    28    15    34 1   
    29    16    35 1   
    30    16    36 1   
    31    17    18 2   
    32    17    19 1   
    33    18    37 1   
    34    20    21 ar  
    35    20    25 ar  
    36    21    22 ar  
    37    21    38 1   
    38    22    23 ar  
    39    22    39 1   
    40    23    24 ar  
    41    23    40 1   
    42    24    25 ar  
    43    24    41 1   
    44    25    48 1   
    45    26    27 1   
    46    27    42 1   
    47    27    43 1   
    48    27    44 1   
    49    28    45 1   
    50    28    46 1   
    51    28    47 1   
@<TRIPOS>SUBSTRUCTURE
     1 FAZ         1 TEMP              0 ****  ****    0 ROOT
