@<TRIPOS>MOLECULE
molecule
   41    42     1     0     0
SMALL
bcc


@<TRIPOS>ATOM
      1 O12          0.0000     0.0000     0.0000 o          1 FB       -0.528100
      2 C12          1.2130     0.0000     0.0000 c          1 FB        0.561100
      3 C5A          1.9440     0.0000     1.2670 ce         1 FB       -0.211200
      4 C5           3.2750    -0.0970     1.2700 c2         1 FB       -0.110400
      5 C6           3.9460    -0.6080     0.0390 c3         1 FB        0.288400
      6 O6           2.9860    -1.2210    -0.8260 oh         1 FB       -0.559800
      7 N10          4.9230    -1.6180     0.5120 ns         1 FB       -0.599900
      8 C9           6.0190    -1.1290     1.1320 c          1 FB        0.696500
      9 O9           6.7030    -1.8630     1.8130 o          1 FB       -0.593500
     10 C4           4.0130     0.3160     2.5100 c3         1 FB       -0.078200
     11 C3           4.8560     1.5550     2.2020 c3         1 FB        0.112400
     12 O2           6.2890     1.1740     2.0590 os         1 FB       -0.332600
     13 C1           6.4110     0.2810     0.9720 c3         1 FB        0.206200
     14 N8           5.8910     0.9020    -0.2590 ns         1 FB       -0.581900
     15 C7           4.6820     0.4690    -0.6940 c          1 FB        0.649500
     16 O7           4.1910     0.9620    -1.6880 o          1 FB       -0.594500
     17 C1A          7.9190     0.2180     0.7200 c3         1 FB        0.121100
     18 O1A          8.1600    -0.1890    -0.6280 oh         1 FB       -0.612800
     19 C2A          8.5320     1.6000     0.9540 c3         1 FB        0.162800
     20 C2B          7.7420     2.6490     0.1680 c3         1 FB       -0.115100
     21 O2A          8.4850     1.9140     2.3470 oh         1 FB       -0.573800
     22 C3A          9.9870     1.5990     0.4810 c3         1 FB        0.102400
     23 O3A         10.5610     2.8890     0.6990 oh         1 FB       -0.608800
     24 H12          1.7540     0.0750    -0.9360 h4         1 FB        0.049200
     25 H5A          1.4030     0.0470     2.2040 ha         1 FB        0.155000
     26 HO6          3.3840    -1.9520    -1.2690 ho         1 FB        0.414000
     27 H10          4.9490    -2.5250     0.0920 hn         1 FB        0.337500
     28 H41          3.3020     0.5470     3.2950 hc         1 FB        0.078200
     29 H42          4.6590    -0.4920     2.8330 hc         1 FB        0.078200
     30 H31          4.5100     2.0040     1.2790 h1         1 FB        0.072700
     31 H32          4.7520     2.2690     3.0090 h1         1 FB        0.072700
     32 HN8          6.5180     1.3560    -0.8940 hn         1 FB        0.372500
     33 H1A          8.3690    -0.4960     1.3990 h1         1 FB        0.087700
     34 H1O          8.7070    -0.9570    -0.6310 ho         1 FB        0.419000
     35 HB1          7.8150     2.4370    -0.8920 hc         1 FB        0.057367
     36 HB2          8.1490     3.6330     0.3680 hc         1 FB        0.057367
     37 HB3          6.7020     2.6200     0.4710 hc         1 FB        0.057367
     38 H2O          9.3370     2.1970     2.6350 ho         1 FB        0.411000
     39 HA1         10.5470     0.8560     1.0370 h1         1 FB        0.034200
     40 HA2         10.0230     1.3620    -0.5760 h1         1 FB        0.034200
     41 H3O         11.4770     2.8680     0.4770 ho         1 FB        0.411000
@<TRIPOS>BOND
     1     1     2 2
     2     2     3 1
     3     2    24 1
     4     3     4 2
     5     3    25 1
     6     4     5 1
     7     4    10 1
     8     5     6 1
     9     5     7 1
    10     5    15 1
    11     6    26 1
    12     7     8 1
    13     7    27 1
    14     8     9 2
    15     8    13 1
    16    10    11 1
    17    10    28 1
    18    10    29 1
    19    11    12 1
    20    11    30 1
    21    11    31 1
    22    12    13 1
    23    13    14 1
    24    13    17 1
    25    14    15 1
    26    14    32 1
    27    15    16 2
    28    17    18 1
    29    17    19 1
    30    17    33 1
    31    18    34 1
    32    19    20 1
    33    19    21 1
    34    19    22 1
    35    20    35 1
    36    20    36 1
    37    20    37 1
    38    21    38 1
    39    22    23 1
    40    22    39 1
    41    22    40 1
    42    23    41 1
@<TRIPOS>SUBSTRUCTURE
     1 FB          1 TEMP              0 ****  ****    0 ROOT
