@<TRIPOS>MOLECULE
FB1
   18    18     1     0     0
SMALL
bcc


@<TRIPOS>ATOM
      1 C4           0.0000     0.0000     0.0000 ca         1 FB1       0.017000
      2 Cl1         -0.8660    -0.0010     3.8990 cl         1 FB1       0.024600
      3 C3           1.3830     0.0000     0.0000 ca         1 FB1      -0.100000
      4 C2           2.0750     0.0000     1.1960 ca         1 FB1       0.040000
      5 C1           1.3850    -0.0010     2.3940 ca         1 FB1      -0.220500
      6 C6           0.0010    -0.0010     2.3950 ca         1 FB1       0.020400
      7 C5          -0.6910     0.0050     1.1970 ca         1 FB1      -0.091000
      8 S            2.2670    -0.0020     3.9190 sy         1 FB1       0.938200
      9 N            1.9360     1.4310     4.6790 nz         1 FB1      -0.144500
     10 O1           1.6860    -1.0250     4.7180 o          1 FB1      -0.490300
     11 O2           3.6480     0.0320     3.5840 o          1 FB1      -0.490300
     12 H5          -1.7740     0.0050     1.1980 ha         1 FB1       0.141000
     13 H2           3.1580    -0.0000     1.1950 ha         1 FB1       0.141000
     14 H4          -0.5420     0.0020    -0.9380 ha         1 FB1       0.129000
     15 H3           1.9240    -0.0020    -0.9380 ha         1 FB1       0.136000
     16 H1N          1.0230     1.3880     5.0890 hn         1 FB1       0.317133
     17 H2N          1.9680     2.1770     4.0130 hn         1 FB1       0.317133
     18 HN3          2.6150     1.5930     5.3960 hn         1 FB1       0.317133
@<TRIPOS>BOND
     1     1     3 ar  
     2     1     7 ar  
     3     1    14 1   
     4     2     6 1   
     5     3     4 ar  
     6     3    15 1   
     7     4     5 ar  
     8     4    13 1   
     9     5     6 ar  
    10     5     8 1   
    11     6     7 ar  
    12     7    12 1   
    13     8     9 1   
    14     8    10 2   
    15     8    11 2   
    16     9    16 1   
    17     9    17 1   
    18     9    18 1   
@<TRIPOS>SUBSTRUCTURE
     1 FB1         1 TEMP              0 ****  ****    0 ROOT
