@<TRIPOS>MOLECULE
FB2
   18    18     1     0     0
SMALL
bcc


@<TRIPOS>ATOM
      1 C01          0.0000     0.0000     0.0000 ca         1 FB2       0.012000
      2 C02          1.3820     0.0000     0.0000 ca         1 FB2      -0.103000
      3 C03          2.0740     0.0000     1.1970 ca         1 FB2       0.012000
      4 C04          1.3830     0.0020     2.3940 ca         1 FB2      -0.227500
      5 C05          0.0010     0.0040     2.3940 ca         1 FB2       0.012000
      6 C06         -0.6910     0.0020     1.1970 ca         1 FB2      -0.103000
      7 S07          2.2640     0.0010     3.9190 sy         1 FB2       0.936200
      8 O09          1.3820    -0.5410     4.8930 o          1 FB2      -0.494800
      9 O08          3.5460    -0.5450     3.6430 o          1 FB2      -0.494800
     10 NP0          2.5120     1.5830     4.3430 nz         1 FB2      -0.131500
     11 H01         -0.5420    -0.0010    -0.9380 ha         1 FB2       0.126000
     12 H02          1.9240    -0.0020    -0.9380 ha         1 FB2       0.133000
     13 H06         -1.7740     0.0030     1.1980 ha         1 FB2       0.133000
     14 H03          3.1570    -0.0010     1.1960 ha         1 FB2       0.126000
     15 H05         -0.5410     0.0060     3.3320 ha         1 FB2       0.126000
     16 HP01         1.6290     2.0430     4.4470 hn         1 FB2       0.313467
     17 HP02         3.0120     1.6220     5.2090 hn         1 FB2       0.313467
     18 HP03         3.0440     2.0400     3.6300 hn         1 FB2       0.313467
@<TRIPOS>BOND
     1     1     2 ar  
     2     1     6 ar  
     3     1    11 1   
     4     2     3 ar  
     5     2    12 1   
     6     3     4 ar  
     7     3    14 1   
     8     4     5 ar  
     9     4     7 1   
    10     5     6 ar  
    11     5    15 1   
    12     6    13 1   
    13     7     8 2   
    14     7     9 2   
    15     7    10 1   
    16    10    16 1   
    17    10    17 1   
    18    10    18 1   
@<TRIPOS>SUBSTRUCTURE
     1 FB2         1 TEMP              0 ****  ****    0 ROOT
