@<TRIPOS>MOLECULE
molecule
   26    27     1     0     0
SMALL
bcc


@<TRIPOS>ATOM
      1 C1           0.0000     0.0000     0.0000 ca         1 FB4       0.081100
      2 C2           1.3910     0.0000     0.0000 ca         1 FB4       0.111100
      3 C3           2.0810     0.0000     1.2010 ca         1 FB4      -0.171000
      4 C4           1.3870     0.0010     2.3980 ca         1 FB4       0.046400
      5 C5           0.0030     0.0020     2.3980 ca         1 FB4      -0.131000
      6 C6          -0.6900     0.0010     1.2020 ca         1 FB4      -0.110000
      7 O7          -0.6810     0.0050    -1.1770 os         1 FB4      -0.227200
      8 C8          -0.8430    -1.1790    -1.8270 ca         1 FB4       0.127100
      9 C9          -1.4250    -1.2070    -3.0930 ca         1 FB4       0.151600
     10 C10         -1.5860    -2.4170    -3.7510 ca         1 FB4      -0.110000
     11 C11         -1.1700    -3.5910    -3.1490 ca         1 FB4       0.000400
     12 C12         -0.5930    -3.5620    -1.8930 ca         1 FB4      -0.093000
     13 C13         -0.4240    -2.3580    -1.2340 ca         1 FB4      -0.191000
     14 Cl14         2.2520     0.0010     3.9030 cl         1 FB4      -0.096400
     15 Cl15        -1.3730    -5.1060    -3.9750 cl         1 FB4      -0.114400
     16 N16         -1.8450    -0.0170    -3.6980 nv         1 FB4      -0.974200
     17 O17          2.0730    -0.0010    -1.1770 oh         1 FB4      -0.498100
     18 H3           3.1640    -0.0000     1.2040 ha         1 FB4       0.156000
     19 H5          -0.5380     0.0020     3.3360 ha         1 FB4       0.152000
     20 H6          -1.7740     0.0010     1.2040 ha         1 FB4       0.156000
     21 H10         -2.0380    -2.4430    -4.7350 ha         1 FB4       0.153000
     22 H12         -0.2670    -4.4840    -1.4270 ha         1 FB4       0.145000
     23 H13          0.0280    -2.3390    -0.2500 ha         1 FB4       0.148000
     24 HN16        -2.7510     0.3560    -3.4910 hn         1 FB4       0.430300
     25 HN1A        -1.2540     0.4420    -4.3620 hn         1 FB4       0.430300
     26 HO17         2.6270     0.7610    -1.2200 ho         1 FB4       0.427000
@<TRIPOS>BOND
     1     1     2 ar
     2     1     6 ar
     3     1     7 1
     4     2     3 ar
     5     2    17 1
     6     3     4 ar
     7     4     5 ar
     8     4    14 1
     9     5     6 ar
    10     7     8 1
    11     8     9 ar
    12     8    13 ar
    13     9    10 ar
    14     9    16 1
    15    10    11 ar
    16    11    12 ar
    17    11    15 1
    18    12    13 ar
    19     3    18 1
    20     5    19 1
    21     6    20 1
    22    10    21 1
    23    12    22 1
    24    13    23 1
    25    16    24 1
    26    16    25 1
    27    17    26 1
@<TRIPOS>SUBSTRUCTURE
     1 FB4         1 TEMP              0 ****  ****    0 ROOT
