@<TRIPOS>MOLECULE
FB4
   26    27     1     0     0
SMALL
bcc


@<TRIPOS>ATOM
      1 C1           0.0000     0.0000     0.0000 ca         1 FB4       0.073100
      2 C2           1.3910     0.0000     0.0000 ca         1 FB4       0.127100
      3 C3           2.0810     0.0000     1.2010 ca         1 FB4      -0.157000
      4 C4           1.3870     0.0010     2.3980 ca         1 FB4      -0.014600
      5 C5           0.0030     0.0020     2.3980 ca         1 FB4      -0.111000
      6 C6          -0.6900     0.0010     1.2020 ca         1 FB4      -0.082000
      7 O7          -0.6810     0.0050    -1.1770 os         1 FB4      -0.202200
      8 C8          -0.8430    -1.1790    -1.8270 ca         1 FB4       0.138100
      9 C9          -1.4250    -1.2070    -3.0930 ca         1 FB4       0.007600
     10 C10         -1.5860    -2.4170    -3.7510 ca         1 FB4      -0.081000
     11 C11         -1.1700    -3.5910    -3.1490 ca         1 FB4      -0.063600
     12 C12         -0.5930    -3.5620    -1.8930 ca         1 FB4      -0.061000
     13 C13         -0.4240    -2.3580    -1.2340 ca         1 FB4      -0.180000
     14 Cl14         2.2520     0.0010     3.9030 cl         1 FB4      -0.016400
     15 Cl15        -1.3730    -5.1060    -3.9750 cl         1 FB4      -0.035400
     16 N16         -1.8450    -0.0170    -3.6980 nv         1 FB4      -0.542200
     17 O17          2.0730    -0.0010    -1.1770 oh         1 FB4      -0.479100
     18 H3           3.1640    -0.0000     1.2040 ha         1 FB4       0.127000
     19 H5          -0.5380     0.0020     3.3360 ha         1 FB4       0.120000
     20 H6          -1.7740     0.0010     1.2040 ha         1 FB4       0.122000
     21 H10         -2.0380    -2.4430    -4.7350 ha         1 FB4       0.120000
     22 H12         -0.2670    -4.4840    -1.4270 ha         1 FB4       0.113000
     23 H13          0.0280    -2.3390    -0.2500 ha         1 FB4       0.125000
     24 HN16        -2.7510     0.3560    -3.4910 hn         1 FB4       0.272800
     25 HN1A        -1.2540     0.4420    -4.3620 hn         1 FB4       0.272800
     26 HO17         2.6270     0.7610    -1.2200 ho         1 FB4       0.408000
@<TRIPOS>BOND
     1     1     2 ar  
     2     1     6 ar  
     3     1     7 1   
     4     2     3 ar  
     5     2    17 1   
     6     3     4 ar  
     7     3    18 1   
     8     4     5 ar  
     9     4    14 1   
    10     5     6 ar  
    11     5    19 1   
    12     6    20 1   
    13     7     8 1   
    14     8     9 ar  
    15     8    13 ar  
    16     9    10 ar  
    17     9    16 1   
    18    10    11 ar  
    19    10    21 1   
    20    11    12 ar  
    21    11    15 1   
    22    12    13 ar  
    23    12    22 1   
    24    13    23 1   
    25    16    24 1   
    26    16    25 1   
    27    17    26 1   
@<TRIPOS>SUBSTRUCTURE
     1 FB4         1 TEMP              0 ****  ****    0 ROOT
