@<TRIPOS>MOLECULE
FB7
   51    54     1     0     0
SMALL
bcc


@<TRIPOS>ATOM
      1 FAZ          0.0000     0.0000     0.0000 f          1 FB7      -0.204300
      2 CAY          1.3990     0.0000     0.0000 c3         1 FB7       0.646200
      3 FBA          1.8650     0.0000     1.3190 f          1 FB7      -0.204300
      4 FBB          1.8650    -1.1410    -0.6610 f          1 FB7      -0.204300
      5 CAX          1.9020     1.2320    -0.7100 ca         1 FB7      -0.123300
      6 CAW          1.0260     2.0830    -1.3540 ca         1 FB7      -0.233300
      7 CAV          1.5250     3.2110    -1.9990 ca         1 FB7       0.504200
      8 NBC          0.6510     4.0720    -2.6480 nv         1 FB7      -0.549500
      9 NAU          2.8240     3.4730    -2.0010 nb         1 FB7      -0.616000
     10 CAT          3.6910     2.6850    -1.3990 ca         1 FB7       0.458200
     11 CAH          3.2660     1.5420    -0.7280 cp         1 FB7      -0.158300
     12 CAE          4.2460     0.6610    -0.0460 cp         1 FB7       0.038000
     13 CAF          4.3530    -0.6890    -0.3860 ca         1 FB7      -0.276800
     14 CAD          5.0890     1.1650     0.9490 ca         1 FB7      -0.276800
     15 CAC          5.9920     0.3100     1.5630 ca         1 FB7       0.524700
     16 NAI          6.8360     0.8000     2.5540 nh         1 FB7      -0.464800
     17 CAO          7.7110    -0.2620     3.0730 c3         1 FB7       0.101550
     18 CAP          8.5790     0.3050     4.1990 c3         1 FB7       0.211400
     19 OAQ          9.3190     1.4240     3.7070 os         1 FB7      -0.410600
     20 CAR          8.4980     2.4770     3.1950 c3         1 FB7       0.211400
     21 CAS          7.6300     1.9330     2.0580 c3         1 FB7       0.101550
     22 NAB          6.0620    -0.9680     1.2170 nb         1 FB7      -0.665000
     23 CAA          5.2820    -1.4790     0.2750 ca         1 FB7       0.524700
     24 NAG          5.3980    -2.8250    -0.0560 nh         1 FB7      -0.464800
     25 CAJ          5.6750    -2.9930    -1.4900 c3         1 FB7       0.101550
     26 CAK          5.7340    -4.4870    -1.8210 c3         1 FB7       0.211400
     27 OAL          6.7250    -5.1130    -1.0000 os         1 FB7      -0.410600
     28 CAM          6.4860    -4.9690     0.4020 c3         1 FB7       0.211400
     29 CAN          6.4340    -3.4800     0.7560 c3         1 FB7       0.101550
     30 H1          -0.0080     1.7910    -1.4960 ha         1 FB7       0.136000
     31 H2          -0.2580     4.2440    -2.2670 hn         1 FB7       0.275800
     32 H3           0.9390     4.5390    -3.4860 hn         1 FB7       0.275800
     33 H4           4.7460     2.9330    -1.4210 h4         1 FB7      -0.010900
     34 H5           3.7190    -1.1140    -1.1550 ha         1 FB7       0.142000
     35 H6           4.9130     2.1520     1.3590 ha         1 FB7       0.142000
     36 H7           8.3480    -0.6260     2.2750 h1         1 FB7       0.030075
     37 H8           7.1050    -1.0730     3.4570 h1         1 FB7       0.030075
     38 H9           9.2660    -0.4580     4.5440 h1         1 FB7       0.014075
     39 H10          7.9440     0.6240     5.0170 h1         1 FB7       0.014075
     40 H11          7.8610     2.8550     3.9860 h1         1 FB7       0.014075
     41 H12          9.1270     3.2740     2.8180 h1         1 FB7       0.014075
     42 H13          8.2650     1.6000     1.2470 h1         1 FB7       0.030075
     43 H14          6.9650     2.7130     1.7070 h1         1 FB7       0.030075
     44 H15          4.8860    -2.5270    -2.0670 h1         1 FB7       0.030075
     45 H16          6.6260    -2.5330    -1.7300 h1         1 FB7       0.030075
     46 H17          5.9970    -4.6150    -2.8640 h1         1 FB7       0.014075
     47 H18          4.7680    -4.9380    -1.6270 h1         1 FB7       0.014075
     48 H19          5.5410    -5.4330     0.6560 h1         1 FB7       0.014075
     49 H20          7.2880    -5.4430     0.9550 h1         1 FB7       0.014075
     50 H21          6.1950    -3.3670     1.8060 h1         1 FB7       0.030075
     51 H22          7.3950    -3.0260     0.5470 h1         1 FB7       0.030075
@<TRIPOS>BOND
     1     1     2 1   
     2     2     3 1   
     3     2     4 1   
     4     2     5 1   
     5     5     6 ar  
     6     5    11 ar  
     7     6     7 ar  
     8     6    30 1   
     9     7     8 1   
    10     7     9 ar  
    11     8    31 1   
    12     8    32 1   
    13     9    10 ar  
    14    10    11 ar  
    15    10    33 1   
    16    11    12 1   
    17    12    13 ar  
    18    12    14 ar  
    19    13    23 ar  
    20    13    34 1   
    21    14    15 ar  
    22    14    35 1   
    23    15    16 1   
    24    15    22 ar  
    25    16    17 1   
    26    16    21 1   
    27    17    18 1   
    28    17    36 1   
    29    17    37 1   
    30    18    19 1   
    31    18    38 1   
    32    18    39 1   
    33    19    20 1   
    34    20    21 1   
    35    20    40 1   
    36    20    41 1   
    37    21    42 1   
    38    21    43 1   
    39    22    23 ar  
    40    23    24 1   
    41    24    25 1   
    42    24    29 1   
    43    25    26 1   
    44    25    44 1   
    45    25    45 1   
    46    26    27 1   
    47    26    46 1   
    48    26    47 1   
    49    27    28 1   
    50    28    29 1   
    51    28    48 1   
    52    28    49 1   
    53    29    50 1   
    54    29    51 1   
@<TRIPOS>SUBSTRUCTURE
     1 FB7         1 TEMP              0 ****  ****    0 ROOT
