@<TRIPOS>MOLECULE
molecule
   51    54     1     0     0
SMALL
bcc


@<TRIPOS>ATOM
      1 FAZ          0.0000     0.0000     0.0000 f          1 FB7      -0.216300
      2 CAY          1.3990     0.0000     0.0000 c3         1 FB7       0.676200
      3 FBA          1.8650     0.0000     1.3190 f          1 FB7      -0.216300
      4 FBB          1.8650    -1.1410    -0.6610 f          1 FB7      -0.216300
      5 CAX          1.9020     1.2320    -0.7100 ca         1 FB7      -0.097300
      6 CAW          1.0260     2.0830    -1.3540 ca         1 FB7      -0.265300
      7 CAV          1.5250     3.2110    -1.9990 ca         1 FB7       0.701200
      8 NBC          0.6510     4.0720    -2.6480 nv         1 FB7      -1.025500
      9 NAU          2.8240     3.4730    -2.0010 nb         1 FB7      -0.732000
     10 CAT          3.6910     2.6850    -1.3990 ca         1 FB7       0.477200
     11 CAH          3.2660     1.5420    -0.7280 cp         1 FB7      -0.175300
     12 CAE          4.2460     0.6610    -0.0460 cp         1 FB7       0.023000
     13 CAF          4.3530    -0.6890    -0.3860 ca         1 FB7      -0.286800
     14 CAD          5.0890     1.1650     0.9490 ca         1 FB7      -0.286800
     15 CAC          5.9920     0.3100     1.5630 ca         1 FB7       0.644700
     16 NAI          6.8360     0.8000     2.5540 nh         1 FB7      -0.696800
     17 CAO          7.7110    -0.2620     3.0730 c3         1 FB7       0.133300
     18 CAP          8.5790     0.3050     4.1990 c3         1 FB7       0.134900
     19 OAQ          9.3190     1.4240     3.7070 os         1 FB7      -0.424100
     20 CAR          8.4980     2.4770     3.1950 c3         1 FB7       0.134900
     21 CAS          7.6300     1.9330     2.0580 c3         1 FB7       0.133300
     22 NAB          6.0620    -0.9680     1.2170 nb         1 FB7      -0.784000
     23 CAA          5.2820    -1.4790     0.2750 ca         1 FB7       0.644700
     24 NAG          5.3980    -2.8250    -0.0560 nh         1 FB7      -0.696800
     25 CAJ          5.6750    -2.9930    -1.4900 c3         1 FB7       0.133300
     26 CAK          5.7340    -4.4870    -1.8210 c3         1 FB7       0.134900
     27 OAL          6.7250    -5.1130    -1.0000 os         1 FB7      -0.424100
     28 CAM          6.4860    -4.9690     0.4020 c3         1 FB7       0.134900
     29 CAN          6.4340    -3.4800     0.7560 c3         1 FB7       0.133300
     30 H1          -0.0080     1.7910    -1.4960 ha         1 FB7       0.159000
     31 H2          -0.2580     4.2440    -2.2670 hn         1 FB7       0.444300
     32 H3           0.9390     4.5390    -3.4860 hn         1 FB7       0.444300
     33 H4           4.7460     2.9330    -1.4210 h4         1 FB7       0.036100
     34 H5           3.7190    -1.1140    -1.1550 ha         1 FB7       0.158500
     35 H6           4.9130     2.1520     1.3590 ha         1 FB7       0.158500
     36 H7           8.3480    -0.6260     2.2750 h1         1 FB7       0.057200
     37 H8           7.1050    -1.0730     3.4570 h1         1 FB7       0.057200
     38 H9           9.2660    -0.4580     4.5440 h1         1 FB7       0.056075
     39 H10          7.9440     0.6240     5.0170 h1         1 FB7       0.056075
     40 H11          7.8610     2.8550     3.9860 h1         1 FB7       0.056075
     41 H12          9.1270     3.2740     2.8180 h1         1 FB7       0.056075
     42 H13          8.2650     1.6000     1.2470 h1         1 FB7       0.057200
     43 H14          6.9650     2.7130     1.7070 h1         1 FB7       0.057200
     44 H15          4.8860    -2.5270    -2.0670 h1         1 FB7       0.057200
     45 H16          6.6260    -2.5330    -1.7300 h1         1 FB7       0.057200
     46 H17          5.9970    -4.6150    -2.8640 h1         1 FB7       0.056075
     47 H18          4.7680    -4.9380    -1.6270 h1         1 FB7       0.056075
     48 H19          5.5410    -5.4330     0.6560 h1         1 FB7       0.056075
     49 H20          7.2880    -5.4430     0.9550 h1         1 FB7       0.056075
     50 H21          6.1950    -3.3670     1.8060 h1         1 FB7       0.057200
     51 H22          7.3950    -3.0260     0.5470 h1         1 FB7       0.057200
@<TRIPOS>BOND
     1     8     7 1
     2     7     6 ar
     3     7     9 ar
     4     6     5 ar
     5     9    10 ar
     6     1     2 1
     7     5     2 1
     8     5    11 ar
     9    10    11 ar
    10     2     3 1
    11     2     4 1
    12    11    12 1
    13    12    14 ar
    14    12    13 ar
    15    14    15 ar
    16    13    23 ar
    17    21    20 1
    18    21    16 1
    19    20    19 1
    20    15    16 1
    21    15    22 ar
    22    16    17 1
    23    23    22 ar
    24    23    24 1
    25    19    18 1
    26    25    24 1
    27    25    26 1
    28    24    29 1
    29    17    18 1
    30    26    27 1
    31    29    28 1
    32    27    28 1
    33     6    30 1
    34     8    31 1
    35     8    32 1
    36    10    33 1
    37    13    34 1
    38    14    35 1
    39    17    36 1
    40    17    37 1
    41    18    38 1
    42    18    39 1
    43    20    40 1
    44    20    41 1
    45    21    42 1
    46    21    43 1
    47    25    44 1
    48    25    45 1
    49    26    46 1
    50    26    47 1
    51    28    48 1
    52    28    49 1
    53    29    50 1
    54    29    51 1
@<TRIPOS>SUBSTRUCTURE
     1 FB7         1 TEMP              0 ****  ****    0 ROOT
