@<TRIPOS>MOLECULE
molecule
   47    49     1     0     0
SMALL
bcc


@<TRIPOS>ATOM
      1 C4           0.0000     0.0000     0.0000 cc         1 FB8      -0.327100
      2 C14         -1.8570    -0.0700    -8.1720 ca         1 FB8      -0.012500
      3 C5          -0.8830     0.0000    -1.1830 ca         1 FB8       0.609800
      4 C6          -2.2710    -0.1250    -1.0350 ca         1 FB8      -0.458600
      5 C11         -3.4490     1.1640    -6.8720 ca         1 FB8      -0.012500
      6 C7          -3.0570    -0.1180    -2.1720 ca         1 FB8       0.500200
      7 C8          -1.1660     0.1220    -3.4700 ca         1 FB8       0.944900
      8 C9          -1.4290     0.3690    -5.8540 ca         1 FB8       0.217600
      9 C10         -2.6380     1.0470    -5.7610 ca         1 FB8      -0.170000
     10 C12         -3.0580     0.6060    -8.0760 ca         1 FB8      -0.320500
     11 C13         -5.1720    -0.7020    -9.4230 c3         1 FB8      -0.228300
     12 N1           1.7710     0.0000     1.2720 nd         1 FB8      -0.706000
     13 N2          -2.4810     0.0050    -3.3580 nb         1 FB8      -0.797000
     14 C3           1.3620     0.0000     0.0000 cd         1 FB8       0.388200
     15 N3          -0.6050     0.2490    -4.7300 nu         1 FB8      -0.756300
     16 C2           0.7340     0.0090     2.0660 cc         1 FB8       0.430800
     17 S1          -4.0980     0.7560    -9.4920 sy         1 FB8       1.192300
     18 O1          -4.8470     1.9400    -9.2520 o          1 FB8      -0.620800
     19 O2          -3.2030     0.6660   -10.5940 o          1 FB8      -0.620800
     20 C15         -1.0410    -0.1910    -7.0640 ca         1 FB8      -0.170000
     21 N4          -0.3740     0.1260    -2.4090 nb         1 FB8      -0.787000
     22 N5          -0.3900     0.0060     1.3210 na         1 FB8      -0.170900
     23 C16         -1.7670     0.0080     1.8220 c3         1 FB8       0.041000
     24 C17         -1.7590    -0.2110     3.3370 c3         1 FB8      -0.117600
     25 C18         -2.4230     1.3530     1.5050 c3         1 FB8      -0.117600
     26 H2          -1.5550    -0.5060    -9.1160 ha         1 FB8       0.152000
     27 H3          -2.7180    -0.2250    -0.0530 ha         1 FB8       0.155000
     28 H4          -4.3920     1.6920    -6.8010 ha         1 FB8       0.152000
     29 H5          -4.1330    -0.2130    -2.0930 h4         1 FB8       0.029100
     30 H6          -2.9440     1.4840    -4.8180 ha         1 FB8       0.150500
     31 H7          -4.5630    -1.5980    -9.4020 h1         1 FB8       0.097700
     32 H8          -5.8130    -0.7210   -10.2960 h1         1 FB8       0.097700
     33 H9          -5.7820    -0.6590    -8.5290 h1         1 FB8       0.097700
     34 H12          2.0000    -0.0060    -0.8750 h4         1 FB8       0.058100
     35 H14          0.3900     0.2770    -4.8350 hn         1 FB8       0.472800
     36 H15          1.8140    -0.0690     3.8990 hc         1 FB8       0.059367
     37 H16          0.3580     0.9350     3.9460 hc         1 FB8       0.059367
     38 H17          0.2180    -0.8290     3.9540 hc         1 FB8       0.059367
     39 H19         -0.0990    -0.7210    -7.1390 ha         1 FB8       0.150500
     40 H21         -2.3270    -0.7870     1.3450 h1         1 FB8       0.073700
     41 H22         -2.7780    -0.2370     3.7040 hc         1 FB8       0.053867
     42 H23         -1.2230     0.5990     3.8160 hc         1 FB8       0.053867
     43 H24         -1.2700    -1.1510     3.5630 hc         1 FB8       0.053867
     44 H25         -1.8800     1.8400     0.7040 hc         1 FB8       0.053867
     45 H26         -2.4030     1.9820     2.3880 hc         1 FB8       0.053867
     46 H27         -3.4490     1.1920     1.2000 hc         1 FB8       0.053867
     47 C1           0.7850     0.0120     3.5720 c3         1 FB8      -0.119400
@<TRIPOS>BOND
     1    18    17 2
     2    11    17 1
     3    17    19 2
     4    17    10 1
     5     2    10 ar
     6     2    20 ar
     7    10     5 ar
     8    20     8 ar
     9     5     9 ar
    10     8     9 ar
    11     8    15 1
    12    15     7 1
    13    25    23 1
    14     7    13 ar
    15     7    21 ar
    16    13     6 ar
    17    21     3 ar
    18    23    24 1
    19    23    22 1
    20     6     4 ar
    21     3     4 ar
    22     3     1 1
    23    22     1 1
    24    22    16 1
    25     1    14 2
    26    16    47 1
    27    16    12 2
    28    14    12 1
    29     2    26 1
    30     4    27 1
    31     5    28 1
    32     6    29 1
    33     9    30 1
    34    11    31 1
    35    11    32 1
    36    11    33 1
    37    14    34 1
    38    15    35 1
    39    47    36 1
    40    47    37 1
    41    47    38 1
    42    20    39 1
    43    23    40 1
    44    24    41 1
    45    24    42 1
    46    24    43 1
    47    25    44 1
    48    25    45 1
    49    25    46 1
@<TRIPOS>SUBSTRUCTURE
     1 FB8         1 TEMP              0 ****  ****    0 ROOT
