@<TRIPOS>MOLECULE
FBA
   18    18     1     0     0
SMALL
bcc


@<TRIPOS>ATOM
      1 C1           0.0000     0.0000     0.0000 ca         1 FBA      -0.235300
      2 C2           1.3830     0.0000     0.0000 ca         1 FBA      -0.037500
      3 C3           2.0750     0.0000     1.1960 ca         1 FBA      -0.115000
      4 C4           1.3820     0.0020     2.3960 ca         1 FBA       0.176900
      5 C5          -0.0030     0.0030     2.3940 ca         1 FBA      -0.115000
      6 C6          -0.6920     0.0080     1.1970 ca         1 FBA      -0.037500
      7 C           -0.7530    -0.0010    -1.3060 c3         1 FBA       0.041100
      8 N           -0.9980    -1.3860    -1.7280 nz         1 FBA       0.075400
      9 F            2.0580     0.0030     3.5660 f          1 FBA      -0.099900
     10 H2           1.9240    -0.0040    -0.9380 ha         1 FBA       0.112000
     11 H3           3.1580    -0.0000     1.1960 ha         1 FBA       0.143000
     12 H5          -0.5450     0.0070     3.3320 ha         1 FBA       0.143000
     13 H6          -1.7750     0.0080     1.1960 ha         1 FBA       0.112000
     14 H1          -0.1660     0.5090    -2.0610 hx         1 FBA       0.082700
     15 H2A         -1.6990     0.5110    -1.1770 hx         1 FBA       0.082700
     16 HN1         -0.1230    -1.8580    -1.8490 hn         1 FBA       0.223133
     17 HN2         -1.4990    -1.3870    -2.5940 hn         1 FBA       0.223133
     18 HN3         -1.5380    -1.8570    -1.0300 hn         1 FBA       0.223133
@<TRIPOS>BOND
     1     1     2 ar  
     2     1     6 ar  
     3     1     7 1   
     4     2     3 ar  
     5     2    10 1   
     6     3     4 ar  
     7     3    11 1   
     8     4     5 ar  
     9     4     9 1   
    10     5     6 ar  
    11     5    12 1   
    12     6    13 1   
    13     7     8 1   
    14     7    14 1   
    15     7    15 1   
    16     8    16 1   
    17     8    17 1   
    18     8    18 1   
@<TRIPOS>SUBSTRUCTURE
     1 FBA         1 TEMP              0 ****  ****    0 ROOT
