@<TRIPOS>MOLECULE
molecule
   16    17     1     0     0
SMALL
bcc


@<TRIPOS>ATOM
      1 F10          0.0000     0.0000     0.0000 f          1 FBB      -0.135900
      2 C5           1.3510     0.0000     0.0000 ca         1 FBB       0.141900
      3 C6           2.0460     0.0000     1.2030 ca         1 FBB      -0.166000
      4 C1           3.4180     0.0000     1.2150 ca         1 FBB      -0.049000
      5 C4           2.0410    -0.0050    -1.1940 ca         1 FBB      -0.133000
      6 C3           3.4340    -0.0060    -1.1980 ca         1 FBB      -0.017100
      7 S9           4.5900    -0.0140    -2.5270 ss         1 FBB      -0.178100
      8 C8           5.9260    -0.0100    -1.3840 cc         1 FBB       0.657100
      9 N11          7.2610    -0.0130    -1.7320 nv         1 FBB      -0.989800
     10 N7           5.4820    -0.0030    -0.1740 nd         1 FBB      -0.589100
     11 C2           4.1440     0.0010     0.0060 ca         1 FBB       0.108400
     12 H1           1.5010     0.0000     2.1390 ha         1 FBB       0.151000
     13 H2           3.9470     0.0000     2.1600 ha         1 FBB       0.152000
     14 H3           1.4990    -0.0080    -2.1320 ha         1 FBB       0.152000
     15 H4           7.7440     0.8530    -1.8710 hn         1 FBB       0.447800
     16 H5           7.7430    -0.8810    -1.8620 hn         1 FBB       0.447800
@<TRIPOS>BOND
     1     1     2 1
     2     2     5 ar
     3     2     3 ar
     4     5     6 ar
     5     3     4 ar
     6     6     7 1
     7     6    11 ar
     8     7     8 1
     9     4    11 ar
    10    11    10 1
    11     8    10 2
    12     8     9 1
    13     3    12 1
    14     4    13 1
    15     5    14 1
    16     9    15 1
    17     9    16 1
@<TRIPOS>SUBSTRUCTURE
     1 FBB         1 TEMP              0 ****  ****    0 ROOT
