@<TRIPOS>MOLECULE
FBB
   16    17     1     0     0
SMALL
bcc


@<TRIPOS>ATOM
      1 F10          0.0000     0.0000     0.0000 f          1 FBB      -0.123900
      2 C5           1.3510     0.0000     0.0000 ca         1 FBB       0.116900
      3 C6           2.0460     0.0000     1.2030 ca         1 FBB      -0.134000
      4 C1           3.4180     0.0000     1.2150 ca         1 FBB      -0.015000
      5 C4           2.0410    -0.0050    -1.1940 ca         1 FBB      -0.088000
      6 C3           3.4340    -0.0060    -1.1980 ca         1 FBB       0.020900
      7 S9           4.5900    -0.0140    -2.5270 ss         1 FBB      -0.271100
      8 C8           5.9260    -0.0100    -1.3840 cc         1 FBB       0.485100
      9 N11          7.2610    -0.0130    -1.7320 nv         1 FBB      -0.522800
     10 N7           5.4820    -0.0030    -0.1740 nd         1 FBB      -0.449100
     11 C2           4.1440     0.0010     0.0060 ca         1 FBB       0.055400
     12 H1           1.5010     0.0000     2.1390 ha         1 FBB       0.123000
     13 H2           3.9470     0.0000     2.1600 ha         1 FBB       0.117000
     14 H3           1.4990    -0.0080    -2.1320 ha         1 FBB       0.128000
     15 H4           7.7440     0.8530    -1.8710 hn         1 FBB       0.278800
     16 H5           7.7430    -0.8810    -1.8620 hn         1 FBB       0.278800
@<TRIPOS>BOND
     1     1     2 1   
     2     2     3 ar  
     3     2     5 ar  
     4     3     4 ar  
     5     3    12 1   
     6     4    11 ar  
     7     4    13 1   
     8     5     6 ar  
     9     5    14 1   
    10     6     7 1   
    11     6    11 ar  
    12     7     8 1   
    13     8     9 1   
    14     8    10 2   
    15     9    15 1   
    16     9    16 1   
    17    10    11 1   
@<TRIPOS>SUBSTRUCTURE
     1 FBB         1 TEMP              0 ****  ****    0 ROOT
