@<TRIPOS>MOLECULE
molecule
   24    25     1     0     0
SMALL
bcc


@<TRIPOS>ATOM
      1 FL1          0.0000     0.0000     0.0000 f          1 FBC      -0.147400
      2 C1           1.3500     0.0000     0.0000 ca         1 FBC       0.150900
      3 C6           2.0420     0.0000     1.2000 ca         1 FBC      -0.236000
      4 C5           3.4270    -0.0010     1.2070 ca         1 FBC       0.150900
      5 FL2          4.0960     0.0000     2.3800 f          1 FBC      -0.147400
      6 C4           4.1260    -0.0070     0.0140 ca         1 FBC      -0.183000
      7 C2           2.0400    -0.0020    -1.1970 ca         1 FBC      -0.183000
      8 C3           3.4350    -0.0020    -1.1960 cp         1 FBC       0.055000
      9 C12          4.1790    -0.0040    -2.4790 cp         1 FBC      -0.099000
     10 C7           5.3330     0.7680    -2.6140 ca         1 FBC      -0.135500
     11 C8           6.0260     0.7680    -3.8050 ca         1 FBC      -0.105500
     12 C11          3.7260    -0.7760    -3.5470 ca         1 FBC      -0.135500
     13 C10          4.4130    -0.7750    -4.7390 ca         1 FBC      -0.105500
     14 C9           5.5730    -0.0060    -4.8750 ca         1 FBC      -0.082600
     15 C            6.3140    -0.0070    -6.1520 c          1 FBC       0.878200
     16 OC3          7.3190     0.6640    -6.2710 o          1 FBC      -0.831800
     17 OC1          5.8760    -0.7540    -7.1850 o          1 FBC      -0.831800
     18 H6           1.4970     0.0010     2.1370 ha         1 FBC       0.145000
     19 H4           5.2090    -0.0080     0.0210 ha         1 FBC       0.155500
     20 H2           1.4990     0.0020    -2.1350 ha         1 FBC       0.155500
     21 H7           5.6840     1.3680    -1.7840 ha         1 FBC       0.111500
     22 H8           6.9230     1.3650    -3.9090 ha         1 FBC       0.154500
     23 H11          2.8270    -1.3720    -3.4420 ha         1 FBC       0.111500
     24 H10          4.0610    -1.3750    -5.5690 ha         1 FBC       0.154500
@<TRIPOS>BOND
     1     1     2 1
     2     2     3 ar
     3     2     7 ar
     4     3     4 ar
     5     3    18 1
     6     4     5 1
     7     4     6 ar
     8     6     8 ar
     9     6    19 1
    10     7     8 ar
    11     7    20 1
    12     8     9 1
    13     9    10 ar
    14     9    12 ar
    15    10    11 ar
    16    10    21 1
    17    11    14 ar
    18    11    22 1
    19    12    13 ar
    20    12    23 1
    21    13    14 ar
    22    13    24 1
    23    14    15 1
    24    15    16 1
    25    15    17 1
@<TRIPOS>SUBSTRUCTURE
     1 FBC         1 TEMP              0 ****  ****    0 ROOT
