@<TRIPOS>MOLECULE
FBD
   43    43     1     0     0
SMALL
bcc


@<TRIPOS>ATOM
      1 F21          0.0000     0.0000     0.0000 f          1 FBD      -0.146900
      2 C20          1.3510     0.0000     0.0000 ca         1 FBD       0.070900
      3 C22          2.0440     0.0000     1.1990 ca         1 FBD      -0.136500
      4 C23          3.4260    -0.0010     1.1980 ca         1 FBD      -0.063500
      5 C19          2.0440    -0.0070    -1.1990 ca         1 FBD      -0.136500
      6 C18          3.4260    -0.0090    -1.1970 ca         1 FBD      -0.063500
      7 C17          4.1170    -0.0030     0.0010 ca         1 FBD      -0.042300
      8 C16          5.6240    -0.0040     0.0010 c3         1 FBD       0.101000
      9 S15          6.2300     1.7070    -0.0080 ss         1 FBD      -0.400200
     10 C14          8.0320     1.5010    -0.0070 c3         1 FBD       0.119700
     11 C13          8.7020     2.8760    -0.0140 c3         1 FBD      -0.052300
     12 C24         10.1990     2.7060    -0.0130 c          1 FBD       0.976600
     13 O25         10.8000     2.0570     0.9970 o          1 FBD      -0.895300
     14 O26         10.8590     3.1520    -0.9210 o          1 FBD      -0.895300
     15 N12          8.2950     3.6120    -1.2140 ns         1 FBD      -0.210900
     16 C11          8.3190     4.9590    -1.2190 c          1 FBD       0.599100
     17 O27          8.6790     5.5650    -0.2290 o          1 FBD      -0.730100
     18 N10          7.9450     5.6350    -2.3230 ns         1 FBD      -0.160900
     19 C6           7.9710     7.1000    -2.3290 c3         1 FBD      -0.086300
     20 C7           6.6850     7.6280    -1.7460 c          1 FBD       0.988600
     21 O8           6.4860     8.9510    -1.6500 o          1 FBD      -0.924800
     22 O9           5.8350     6.8590    -1.3650 o          1 FBD      -0.924800
     23 C5           8.1230     7.6020    -3.7660 c3         1 FBD      -0.012400
     24 C4           9.4840     7.1700    -4.3160 c3         1 FBD      -0.142400
     25 C2           9.6330     7.6650    -5.7330 c          1 FBD       0.986600
     26 O3          10.7560     7.4020    -6.4200 o          1 FBD      -0.935300
     27 O1           8.7430     8.2970    -6.2480 o          1 FBD      -0.935300
     28 H22          1.5030    -0.0270     2.1380 ha         1 FBD       0.106000
     29 H23          3.9680    -0.0030     2.1360 ha         1 FBD       0.116500
     30 H19          1.5040    -0.0440    -2.1370 ha         1 FBD       0.106000
     31 H18          3.9680    -0.0170    -2.1340 ha         1 FBD       0.116500
     32 H16          5.9840    -0.5190    -0.8810 h1         1 FBD       0.027200
     33 H16A         5.9840    -0.5100     0.8880 h1         1 FBD       0.027200
     34 H14          8.3330     0.9480    -0.8890 h1         1 FBD       0.033200
     35 H14A         8.3330     0.9570     0.8800 h1         1 FBD       0.033200
     36 H13          8.4010     3.4290     0.8680 h1         1 FBD       0.069700
     37 HN12         8.0090     3.1130    -2.0330 hn         1 FBD       0.148500
     38 HN10         7.6070     5.1380    -3.1240 hn         1 FBD       0.144500
     39 H6           8.8070     7.4480    -1.7350 h1         1 FBD       0.053700
     40 H5           8.0540     8.6830    -3.7800 hc         1 FBD       0.025200
     41 H5A          7.3360     7.1820    -4.3810 hc         1 FBD       0.025200
     42 H4           9.5530     6.0890    -4.3020 hc         1 FBD       0.010200
     43 H4A         10.2710     7.5910    -3.7020 hc         1 FBD       0.010200
@<TRIPOS>BOND
     1     1     2 1   
     2     2     3 ar  
     3     2     5 ar  
     4     3     4 ar  
     5     3    28 1   
     6     4     7 ar  
     7     4    29 1   
     8     5     6 ar  
     9     5    30 1   
    10     6     7 ar  
    11     6    31 1   
    12     7     8 1   
    13     8     9 1   
    14     8    32 1   
    15     8    33 1   
    16     9    10 1   
    17    10    11 1   
    18    10    34 1   
    19    10    35 1   
    20    11    12 1   
    21    11    15 1   
    22    11    36 1   
    23    12    13 1   
    24    12    14 1   
    25    15    16 1   
    26    15    37 1   
    27    16    17 2   
    28    16    18 1   
    29    18    19 1   
    30    18    38 1   
    31    19    20 1   
    32    19    23 1   
    33    19    39 1   
    34    20    21 1   
    35    20    22 1   
    36    23    24 1   
    37    23    40 1   
    38    23    41 1   
    39    24    25 1   
    40    24    42 1   
    41    24    43 1   
    42    25    26 1   
    43    25    27 1   
@<TRIPOS>SUBSTRUCTURE
     1 FBD         1 TEMP              0 ****  ****    0 ROOT
