@<TRIPOS>MOLECULE
molecule
   21    21     1     0     0
SMALL
bcc


@<TRIPOS>ATOM
      1 C1           0.0000     0.0000     0.0000 ca         1 FBF      -0.090500
      2 C2           1.3800     0.0000     0.0000 ca         1 FBF      -0.066500
      3 C3           2.0740     0.0000     1.1960 ca         1 FBF      -0.125300
      4 C4           1.3910     0.0000     2.3990 ca         1 FBF      -0.066500
      5 C5           0.0120     0.0000     2.4120 ca         1 FBF      -0.090500
      6 C6          -0.6940     0.0050     1.2100 ca         1 FBF      -0.170900
      7 C7          -2.1750     0.0050     1.2160 ce         1 FBF       0.536800
      8 N8          -2.8210     0.0010     2.3480 n2         1 FBF      -0.670100
      9 N9          -2.8700     0.0100     0.0270 nz         1 FBF      -0.801600
     10 C10          3.5810    -0.0000     1.1890 c3         1 FBF       0.674200
     11 F11          4.0420    -0.6590     0.0450 f          1 FBF      -0.205967
     12 F12          4.0480     1.3200     1.1860 f          1 FBF      -0.205967
     13 F13          4.0530    -0.6590     2.3290 f          1 FBF      -0.205967
     14 H1          -0.5430     0.0020    -0.9370 ha         1 FBF       0.146000
     15 H2           1.9210    -0.0020    -0.9390 ha         1 FBF       0.178500
     16 H4           1.9410    -0.0020     3.3330 ha         1 FBF       0.178500
     17 H5          -0.5220     0.0020     3.3550 ha         1 FBF       0.146000
     18 HN8         -3.8210     0.0010     2.3540 hn         1 FBF       0.437400
     19 HN9         -3.8530     0.0150     0.2150 hn         1 FBF       0.466800
     20 HN9A        -2.6280     0.8270    -0.4980 hn         1 FBF       0.466800
     21 H93         -2.6360    -0.8080    -0.5000 hn         1 FBF       0.466800
@<TRIPOS>BOND
     1     6     1 ar
     2     2     1 ar
     3     1    14 1
     4     3     2 ar
     5     2    15 1
     6     4     3 ar
     7    10     3 1
     8     4     5 ar
     9     4    16 1
    10     5     6 ar
    11     5    17 1
    12     6     7 1
    13     8     7 2
    14     7     9 1
    15     8    18 1
    16     9    19 1
    17     9    20 1
    18    13    10 1
    19    10    12 1
    20    10    11 1
    21    21     9 1
@<TRIPOS>SUBSTRUCTURE
     1 FBF         1 TEMP              0 ****  ****    0 ROOT
