@<TRIPOS>MOLECULE
molecule
   20    21     1     0     0
SMALL
bcc


@<TRIPOS>ATOM
      1 F14          0.0000     0.0000     0.0000 f          1 FBG      -0.168900
      2 C5           1.3510     0.0000     0.0000 ca         1 FBG       0.061900
      3 C6           2.0380     0.0000     1.1960 ca         1 FBG      -0.099000
      4 C1           3.4360     0.0010     1.1960 ca         1 FBG      -0.100600
      5 C11          4.1780     0.0010     2.4700 c          1 FBG       0.883200
      6 O13          5.3920     0.0010     2.4650 o          1 FBG      -0.824300
      7 O12          3.5070    -0.0000     3.6390 o          1 FBG      -0.824300
      8 C4           2.0420    -0.0070    -1.2020 ca         1 FBG      -0.153000
      9 C3           3.4240    -0.0080    -1.2160 ca         1 FBG      -0.218300
     10 C7           4.1550    -0.0200    -2.5350 c3         1 FBG       0.194700
     11 O8           5.5200     0.3530    -2.3210 os         1 FBG      -0.452600
     12 C9           6.1350    -0.3640    -1.2440 c3         1 FBG       0.331200
     13 O10          5.4860     0.0040    -0.0230 os         1 FBG      -0.279900
     14 C2           4.1290     0.0010    -0.0240 ca         1 FBG       0.157100
     15 H1           1.4960     0.0720     2.1320 ha         1 FBG       0.174000
     16 H3           1.4950    -0.0120    -2.1370 ha         1 FBG       0.118000
     17 H4           3.6900     0.6870    -3.2120 h1         1 FBG       0.043700
     18 H5           4.1160    -1.0160    -2.9610 h1         1 FBG       0.043700
     19 H6           7.1800    -0.0840    -1.1860 h2         1 FBG       0.056200
     20 H7           6.0020    -1.4270    -1.4070 h2         1 FBG       0.056200
@<TRIPOS>BOND
     1    12    11 1
     2    12    13 1
     3    11    10 1
     4    13    14 1
     5     6     5 1
     6     7     5 1
     7     5     4 1
     8    14     4 ar
     9    14     9 ar
    10    10     9 1
    11     4     3 ar
    12     9     8 ar
    13     3     2 ar
    14     8     2 ar
    15     2     1 1
    16     3    15 1
    17     8    16 1
    18    10    17 1
    19    10    18 1
    20    12    19 1
    21    12    20 1
@<TRIPOS>SUBSTRUCTURE
     1 FBG         1 TEMP              0 ****  ****    0 ROOT
