@<TRIPOS>MOLECULE
FBG
   20    21     1     0     0
SMALL
bcc


@<TRIPOS>ATOM
      1 F14        -0.0010   -0.3820    0.0080 f         1 FBG     -0.169900
      2 C5          1.3510   -0.2310   -0.0110 ca        1 FBG      0.074900
      3 C6          2.0670   -0.1720    1.2010 ca        1 FBG     -0.128000
      4 C1          3.4530   -0.0300    1.2030 ca        1 FBG     -0.083600
      5 C11         4.1990   -0.0490    2.5390 c         1 FBG      0.925200
      6 O13         4.9640   -1.0260    2.7560 o         1 FBG     -0.813300
      7 O12         3.9650    0.8910    3.3450 o         1 FBG     -0.813300
      8 C4          2.0160   -0.1410   -1.2430 ca        1 FBG     -0.166000
      9 C3          3.4000    0.0280   -1.2520 ca        1 FBG     -0.182300
     10 C7          4.1510    0.1300   -2.5340 c3        1 FBG      0.188700
     11 O8          5.5370    0.4140   -2.3490 os        1 FBG     -0.452600
     12 C9          6.1030   -0.2080   -1.2130 c3        1 FBG      0.318200
     13 O10         5.4720    0.3260   -0.0620 os        1 FBG     -0.309900
     14 C2          4.1030    0.0910   -0.0370 ca        1 FBG      0.121100
     15 H1          1.5330   -0.2400    2.1600 ha        1 FBG      0.155000
     16 H3          1.4520   -0.1980   -2.1830 ha        1 FBG      0.124000
     17 H4          4.0600   -0.8270   -3.1180 h1        1 FBG      0.043200
     18 H5          3.7790    0.9880   -3.1570 h1        1 FBG      0.043200
     19 H6          5.9980   -1.3230   -1.2590 h2        1 FBG      0.062200
     20 H7          7.1680    0.1390   -1.1630 h2        1 FBG      0.062200
@<TRIPOS>BOND
     1    1    2 1   
     2    2    3 ar  
     3    2    8 ar  
     4    3    4 ar  
     5    3   15 1   
     6    4    5 1   
     7    4   14 ar  
     8    5    6 1   
     9    5    7 1   
    10    8    9 ar  
    11    8   16 1   
    12    9   10 1   
    13    9   14 ar  
    14   10   11 1   
    15   10   17 1   
    16   10   18 1   
    17   11   12 1   
    18   12   13 1   
    19   12   19 1   
    20   12   20 1   
    21   13   14 1   
@<TRIPOS>SUBSTRUCTURE
     1 FBG         1 TEMP              0 ****  ****    0 ROOT
