@<TRIPOS>MOLECULE
molecule
   62    63     1     0     0
SMALL
bcc


@<TRIPOS>ATOM
      1 O1S          0.0000     0.0000     0.0000 o          1 FBI      -0.602300
      2 O2S          2.1750    -0.8410    -0.8620 o          1 FBI      -0.602300
      3 N3           1.7900     1.5170    -0.5520 nh         1 FBI      -0.750200
      4 C12          0.8430     2.6170    -0.3570 c3         1 FBI       0.230100
      5 S1           1.4210     0.0000     0.0000 s6         1 FBI       1.321900
      6 C13          2.0890     0.0000     1.6860 c3         1 FBI      -0.245300
      7 C8           4.9990     0.9260    -1.9830 cp         1 FBI       0.556800
      8 C10          5.3170     2.2010    -2.4580 ca         1 FBI      -0.335900
      9 C9           4.4090     3.2240    -2.2560 ca         1 FBI       0.495600
     10 N2           3.2690     2.9650    -1.6340 nb         1 FBI      -0.773000
     11 C11          2.9930     1.7440    -1.1980 ca         1 FBI       0.914900
     12 N1           3.8350     0.7390    -1.3650 nb         1 FBI      -0.751000
     13 C83          8.1590    -1.1090    -1.9990 ca         1 FBI      -0.171500
     14 C82          7.2850    -0.0560    -1.8260 ca         1 FBI      -0.065000
     15 C81          5.9420    -0.2030    -2.1700 cp         1 FBI      -0.166500
     16 C86          5.4880    -1.4170    -2.6830 ca         1 FBI      -0.065000
     17 C85          6.3700    -2.4620    -2.8590 ca         1 FBI      -0.171500
     18 C84          7.7030    -2.3130    -2.5150 ca         1 FBI       0.150900
     19 F1           8.5620    -3.3410    -2.6840 f          1 FBI      -0.141900
     20 O1B         10.0810     2.5310   -11.1610 o          1 FBI      -0.859300
     21 O1A         11.0290     2.7470    -9.1770 o          1 FBI      -0.859300
     22 O3           9.7770     1.5010    -7.1810 oh         1 FBI      -0.597800
     23 C2           8.6930     2.4470    -9.1200 c3         1 FBI      -0.200400
     24 C3           8.9020     2.5450    -7.6090 c3         1 FBI       0.170100
     25 C4           7.5540     2.4030    -6.8970 c3         1 FBI      -0.103400
     26 C5           7.7620     2.5010    -5.3860 c3         1 FBI       0.149100
     27 C6           6.4150     2.3590    -4.6750 c3         1 FBI      -0.092400
     28 C92          3.6400     5.0470    -3.7500 c3         1 FBI      -0.080600
     29 C93          4.7140     5.5830    -1.5600 c3         1 FBI      -0.080600
     30 O5           8.6380     1.4580    -4.9580 oh         1 FBI      -0.580800
     31 H121         0.4650     2.9430    -1.3180 h1         1 FBI       0.052700
     32 H122         0.0180     2.2790     0.2600 h1         1 FBI       0.052700
     33 H123         1.3440     3.4430     0.1330 h1         1 FBI       0.052700
     34 H131         1.3890     0.4910     2.3510 h1         1 FBI       0.097367
     35 H132         2.2430    -1.0210     2.0130 h1         1 FBI       0.097367
     36 H133         3.0330     0.5300     1.7000 h1         1 FBI       0.097367
     37 H83          9.2020    -0.9960    -1.7320 ha         1 FBI       0.145500
     38 H82          7.6420     0.8840    -1.4230 ha         1 FBI       0.149500
     39 H86          4.4460    -1.5350    -2.9520 ha         1 FBI       0.149500
     40 H85          6.0170    -3.4050    -3.2600 ha         1 FBI       0.145500
     41 HO3         10.6270     1.8620    -6.9900 ho         1 FBI       0.408000
     42 H21          8.0280     3.2390    -9.4450 hc         1 FBI       0.037200
     43 H22          8.2550     1.4860    -9.3630 hc         1 FBI       0.037200
     44 H3           9.3390     3.5060    -7.3660 h1         1 FBI       0.023700
     45 H41          7.1170     1.4420    -7.1400 hc         1 FBI       0.049700
     46 H42          6.8890     3.1950    -7.2220 hc         1 FBI       0.049700
     47 H5           8.1990     3.4620    -5.1430 h1         1 FBI       0.017700
     48 H61          5.9780     1.3980    -4.9170 hc         1 FBI       0.052700
     49 H62          5.7500     3.1510    -5.0000 hc         1 FBI       0.052700
     50 H71          6.9800     3.4490    -2.9100 hc         1 FBI       0.058200
     51 H72          7.3530     1.7210    -2.8490 hc         1 FBI       0.058200
     52 H91          5.6810     4.6280    -3.2250 hc         1 FBI       0.073700
     53 H921         2.7470     5.3520    -3.2180 hc         1 FBI       0.038867
     54 H922         3.9990     5.8700    -4.3550 hc         1 FBI       0.038867
     55 H923         3.4100     4.2030    -4.3890 hc         1 FBI       0.038867
     56 H931         5.2410     5.1320    -0.7280 hc         1 FBI       0.038867
     57 H932         3.6950     5.8020    -1.2650 hc         1 FBI       0.038867
     58 H933         5.2120     6.5010    -1.8470 hc         1 FBI       0.038867
     59 HO5          9.3950     1.8340    -4.5400 ho         1 FBI       0.389000
     60 C7           6.6230     2.4580    -3.1620 c3         1 FBI      -0.045100
     61 C91          4.7100     4.6160    -2.7450 c3         1 FBI      -0.127000
     62 C1          10.0200     2.5860    -9.8210 c          1 FBI       0.900600
@<TRIPOS>BOND
     1     1     5 2
     2     2     5 2
     3     3     4 1
     4     3     5 1
     5     3    11 1
     6     4    31 1
     7     4    32 1
     8     4    33 1
     9     5     6 1
    10     6    34 1
    11     6    35 1
    12     6    36 1
    13     7     8 ar
    14     7    12 ar
    15     7    15 1
    16     8     9 ar
    17     8    60 1
    18     9    10 ar
    19     9    61 1
    20    10    11 ar
    21    11    12 ar
    22    13    14 ar
    23    13    18 ar
    24    13    37 1
    25    14    15 ar
    26    14    38 1
    27    15    16 ar
    28    16    17 ar
    29    16    39 1
    30    17    18 ar
    31    17    40 1
    32    18    19 1
    33    20    62 1
    34    21    62 1
    35    22    24 1
    36    22    41 1
    37    62    23 1
    38    23    24 1
    39    23    42 1
    40    23    43 1
    41    24    25 1
    42    24    44 1
    43    25    26 1
    44    25    45 1
    45    25    46 1
    46    26    27 1
    47    26    30 1
    48    26    47 1
    49    27    60 1
    50    27    48 1
    51    27    49 1
    52    60    50 1
    53    60    51 1
    54    61    28 1
    55    61    29 1
    56    61    52 1
    57    28    53 1
    58    28    54 1
    59    28    55 1
    60    29    56 1
    61    29    57 1
    62    29    58 1
    63    30    59 1
@<TRIPOS>SUBSTRUCTURE
     1 FBI         1 TEMP              0 ****  ****    0 ROOT
