@<TRIPOS>MOLECULE
molecule
   18    18     1     0     0
SMALL
bcc


@<TRIPOS>ATOM
      1 C02          0.0000     0.0000     0.0000 c          1 FBJ       0.695300
      2 C05          1.4710     0.0000     0.0000 ce         1 FBJ      -0.209400
      3 C06          2.2250     0.0000     1.0910 c2         1 FBJ      -0.076200
      4 C07          3.6920    -0.0010     0.7290 c3         1 FBJ      -0.070200
      5 C08          3.7330     0.4260    -0.7570 c3         1 FBJ      -0.082400
      6 C09          2.3300    -0.0060    -1.2440 c3         1 FBJ      -0.053200
      7 N03         -0.6730    -0.0050    -1.1670 ns         1 FBJ      -0.470400
      8 O01         -0.6080    -0.0000     1.0530 o          1 FBJ      -0.575100
      9 O04         -2.0900    -0.0110    -1.1670 oh         1 FBJ      -0.362100
     10 H1           1.8870    -0.5130     1.9840 ha         1 FBJ       0.160000
     11 H2           4.1070    -0.9940     0.8460 hc         1 FBJ       0.060700
     12 H3           4.5080    -0.1090    -1.2910 hc         1 FBJ       0.053200
     13 H4           2.3700    -1.0020    -1.6680 hc         1 FBJ       0.048700
     14 H5           1.9480     0.7050    -1.9670 hc         1 FBJ       0.048700
     15 H6          -0.1730    -0.0180    -2.0330 hn         1 FBJ       0.320500
     16 H7          -2.4050     0.0520    -2.0540 ho         1 FBJ       0.397000
     17 H8           4.2300     0.7140     1.3400 hc         1 FBJ       0.060700
     18 H9           3.8590     1.4990    -0.8470 hc         1 FBJ       0.053200
@<TRIPOS>BOND
     1     4     5 1
     2     4     3 1
     3     5     6 1
     4     3     2 2
     5     6     2 1
     6     2     1 1
     7     7     1 1
     8     7     9 1
     9     1     8 2
    10     3    10 1
    11     4    11 1
    12     5    12 1
    13     6    13 1
    14     6    14 1
    15     7    15 1
    16     9    16 1
    17     4    17 1
    18     5    18 1
@<TRIPOS>SUBSTRUCTURE
     1 FBJ         1 TEMP              0 ****  ****    0 ROOT
