@<TRIPOS>MOLECULE
molecule
   53    55     1     0     0
SMALL
bcc


@<TRIPOS>ATOM
      1 C22          0.0000     0.0000     0.0000 c3         1 FBL       0.099400
      2 N1          -6.1060    -1.3860    -2.9630 nb         1 FBL      -0.818000
      3 C2          -6.7790    -2.0390    -3.9000 ca         1 FBL       0.526200
      4 C6          -6.7380    -0.6680    -2.0460 ca         1 FBL       0.969900
      5 C4          -8.7970    -1.2010    -2.9390 ca         1 FBL       0.756200
      6 C3          -8.1580    -1.9660    -3.9170 ca         1 FBL      -0.487600
      7 N5          -8.0600    -0.5760    -2.0250 nb         1 FBL      -0.857000
      8 C11        -12.0360     1.5040    -0.2460 ca         1 FBL      -0.144000
      9 C10        -12.7550     0.4690    -0.8130 ca         1 FBL      -0.090000
     10 C9         -12.1440    -0.3940    -1.7040 ca         1 FBL      -0.024600
     11 C8         -10.8010    -0.2250    -2.0200 ca         1 FBL       0.179600
     12 C12        -10.7000     1.6760    -0.5630 ca         1 FBL       0.049400
     13 C17         -2.5860    -0.0000    -2.4480 ca         1 FBL      -0.174500
     14 C16         -3.9650    -0.0000    -2.3840 ca         1 FBL      -0.106500
     15 C13        -10.0810     0.8150    -1.4490 ca         1 FBL      -0.140000
     16 C15         -4.6020    -0.0000    -1.1490 ca         1 FBL       0.123600
     17 C18         -1.8360    -0.0010    -1.2810 ca         1 FBL       0.106100
     18 C19         -2.4720    -0.0060    -0.0490 ca         1 FBL      -0.174500
     19 C20         -3.8510    -0.0010     0.0170 ca         1 FBL      -0.106500
     20 O21         -0.4780     0.0000    -1.3450 os         1 FBL      -0.294900
     21 N7         -10.1780    -1.0980    -2.9180 nu         1 FBL      -0.754300
     22 Cl30        -9.8000     2.9780     0.1510 cl         1 FBL      -0.104400
     23 C23          1.5290     0.0000     0.0000 c3         1 FBL       0.148100
     24 C24          2.0410     0.0000     1.4410 c3         1 FBL       0.125800
     25 N25          3.5100    -0.0000     1.4400 n3         1 FBL      -0.657600
     26 C26          3.9330     0.0010     2.8470 c3         1 FBL       0.120600
     27 C27          3.9310    -1.2870     0.8730 c3         1 FBL       0.120600
     28 O28          2.0050     1.1660    -0.6750 oh         1 FBL      -0.581800
     29 H221        -0.3610    -0.8850     0.5110 h1         1 FBL       0.049200
     30 H222        -0.3610     0.8840     0.5110 h1         1 FBL       0.049200
     31 H2          -6.2520    -2.6230    -4.6440 h4         1 FBL       0.032100
     32 H3          -8.7310    -2.4880    -4.6740 ha         1 FBL       0.145000
     33 H11        -12.5180     2.1790     0.4510 ha         1 FBL       0.149000
     34 H10        -13.8010     0.3380    -0.5640 ha         1 FBL       0.151000
     35 H17         -2.0890     0.0020    -3.4110 ha         1 FBL       0.143500
     36 H16         -4.5500    -0.0000    -3.2950 ha         1 FBL       0.147000
     37 H13         -9.0340     0.9490    -1.6950 ha         1 FBL       0.201000
     38 H19         -1.8860    -0.0060     0.8620 ha         1 FBL       0.143500
     39 H20         -4.3470    -0.0030     0.9800 ha         1 FBL       0.147000
     40 H7         -10.7300    -1.6420    -3.5520 hn         1 FBL       0.471800
     41 H23          1.8900    -0.8850    -0.5110 h1         1 FBL       0.042700
     42 H241         1.6800    -0.8840     1.9530 h1         1 FBL       0.045700
     43 H242         1.6810     0.8850     1.9530 h1         1 FBL       0.045700
     44 H261         3.5720     0.8990     3.3320 h1         1 FBL       0.035200
     45 H262         3.5250    -0.8690     3.3470 h1         1 FBL       0.035200
     46 H263         5.0150    -0.0280     2.8980 h1         1 FBL       0.035200
     47 H271         3.3480    -2.0850     1.3160 h1         1 FBL       0.035200
     48 H272         4.9820    -1.4470     1.0840 h1         1 FBL       0.035200
     49 H273         3.7760    -1.2770    -0.1990 h1         1 FBL       0.035200
     50 H28          2.4480     0.9110    -1.4670 ho         1 FBL       0.407000
     51 N14         -6.0000    -0.0010    -1.0840 nu         1 FBL      -0.749300
     52 Cl29       -13.0490    -1.6920    -2.4150 cl         1 FBL      -0.109400
     53 H14         -6.4660     0.4790    -0.3400 hn         1 FBL       0.466800
@<TRIPOS>BOND
     1     1    20 1
     2     1    23 1
     3     1    29 1
     4     1    30 1
     5     2     3 ar
     6     2     4 ar
     7     3     6 ar
     8     3    31 1
     9     4     7 ar
    10     4    51 1
    11     5     6 ar
    12     5     7 ar
    13     5    21 1
    14     6    32 1
    15     8     9 ar
    16     8    12 ar
    17     8    33 1
    18     9    10 ar
    19     9    34 1
    20    10    11 ar
    21    10    52 1
    22    11    15 ar
    23    11    21 1
    24    12    15 ar
    25    12    22 1
    26    13    14 ar
    27    13    17 ar
    28    13    35 1
    29    14    16 ar
    30    14    36 1
    31    15    37 1
    32    16    19 ar
    33    16    51 1
    34    17    18 ar
    35    17    20 1
    36    18    19 ar
    37    18    38 1
    38    19    39 1
    39    21    40 1
    40    51    53 1
    41    23    24 1
    42    23    28 1
    43    23    41 1
    44    24    25 1
    45    24    42 1
    46    24    43 1
    47    25    26 1
    48    25    27 1
    49    26    44 1
    50    26    45 1
    51    26    46 1
    52    27    47 1
    53    27    48 1
    54    27    49 1
    55    28    50 1
@<TRIPOS>SUBSTRUCTURE
     1 FBL         1 TEMP              0 ****  ****    0 ROOT
