@<TRIPOS>MOLECULE
molecule
   21    21     1     0     0
SMALL
bcc


@<TRIPOS>ATOM
      1 C10          0.0000     0.0000     0.0000 c3         1 FBM      -0.041200
      2 C02          2.1950     0.0010    -1.2980 c          1 FBM       0.682300
      3 C05          1.5010     0.0000     0.0000 ce         1 FBM      -0.201400
      4 C06          2.2330     0.0000     1.0930 c2         1 FBM      -0.077200
      5 C07          1.6610    -0.0090     2.4810 c3         1 FBM      -0.055200
      6 C08          0.1880     0.4060     2.4460 c3         1 FBM      -0.082400
      7 C09         -0.5230    -0.4230     1.3730 c3         1 FBM      -0.078400
      8 N03          1.4820     0.0010    -2.4420 ns         1 FBM      -0.472400
      9 O01          3.4090     0.0010    -1.3380 o          1 FBM      -0.583100
     10 O04          2.1490     0.0010    -3.6910 oh         1 FBM      -0.363100
     11 H1          -0.3580    -0.6960    -0.7490 hc         1 FBM       0.045700
     12 H2          -0.3580     0.9970    -0.2280 hc         1 FBM       0.045700
     13 H4           3.3110     0.0070     0.9860 ha         1 FBM       0.155000
     14 H6           2.2140     0.6870     3.1000 hc         1 FBM       0.059700
     15 H7           1.7410    -1.0070     2.8940 hc         1 FBM       0.059700
     16 H9          -0.2650     0.2170     3.4120 hc         1 FBM       0.047200
     17 H8           0.1130     1.4580     2.2020 hc         1 FBM       0.047200
     18 H11         -1.5900    -0.2440     1.4260 hc         1 FBM       0.046700
     19 H10         -0.3170    -1.4750     1.5320 hc         1 FBM       0.046700
     20 H12          0.4820     0.0390    -2.4080 hn         1 FBM       0.321500
     21 H13          1.5280    -0.1710    -4.3790 ho         1 FBM       0.396000
@<TRIPOS>BOND
     1     6     5 1
     2     6     7 1
     3     5     4 1
     4     7     1 1
     5     4     3 2
     6     3     1 1
     7     3     2 1
     8     8     2 1
     9     8    10 1
    10     2     9 2
    11     1    11 1
    12     1    12 1
    13     4    13 1
    14     5    14 1
    15     5    15 1
    16     6    16 1
    17     6    17 1
    18     7    18 1
    19     7    19 1
    20     8    20 1
    21    10    21 1
@<TRIPOS>SUBSTRUCTURE
     1 FBM         1 TEMP              0 ****  ****    0 ROOT
