@<TRIPOS>MOLECULE
FBN
   58    62     1     0     0
SMALL
bcc


@<TRIPOS>ATOM
      1 C1           0.0000     0.0000     0.0000 ca         1 FBN       0.265800
      2 N2           1.3280     0.0000     0.0000 nb         1 FBN      -0.664000
      3 C3           1.9990     0.0000     1.1330 ca         1 FBN       0.680900
      4 N4           1.4010    -0.0020     2.3100 nb         1 FBN      -0.724000
      5 C5           0.0760    -0.0020     2.4100 ca         1 FBN       0.591200
      6 C6          -0.6830    -0.0010     1.2280 ca         1 FBN      -0.230200
      7 N8          -2.0090    -0.0010     0.9470 nc         1 FBN      -0.490100
      8 C9          -2.1790     0.0000    -0.3420 cd         1 FBN       0.256700
      9 N10         -0.9690     0.0050    -0.9710 na         1 FBN       0.199000
     10 N11         -0.5400    -0.0050     3.6480 nv         1 FBN      -0.512500
     11 C15         -0.7450     0.0140    -2.4190 c3         1 FBN       0.150800
     12 O16         -1.8950     0.5590    -3.1030 os         1 FBN      -0.371600
     13 C17         -1.7930     0.0790    -4.4610 c3         1 FBN       0.150100
     14 C18         -1.3220    -1.3870    -4.3270 c3         1 FBN       0.133100
     15 C19         -0.6170    -1.4290    -2.9520 c3         1 FBN       0.125100
     16 O21         -0.4050    -1.7150    -5.3720 oh         1 FBN      -0.546800
     17 O23          0.7590    -1.7860    -3.1070 oh         1 FBN      -0.537800
     18 C27         -3.1580     0.1380    -5.1510 c3         1 FBN      -0.030700
     19 N29         -3.5650     1.5370    -5.3070 na         1 FBN       0.590400
     20 C32         -3.9130     2.1360    -6.4690 cc         1 FBN      -0.437600
     21 C33         -4.2140     3.4180    -6.1570 cd         1 FBN       0.232600
     22 N34         -4.0380     3.5390    -4.8360 nd         1 FBN      -0.297000
     23 N35         -3.6600     2.4050    -4.3620 nc         1 FBN      -0.346800
     24 C37         -4.6600     4.4980    -7.1100 c3         1 FBN       0.059700
     25 N38         -6.1230     4.5660    -7.1210 ns         1 FBN      -0.194900
     26 C41         -6.7500     5.4650    -7.9050 c          1 FBN       0.593700
     27 C42         -8.2240     5.5340    -7.9150 ca         1 FBN      -0.191600
     28 O43         -6.1000     6.2180    -8.6040 o          1 FBN      -0.625100
     29 C45         -8.8780     6.4660    -8.7290 ca         1 FBN       0.221100
     30 C46        -10.2690     6.5230    -8.7300 ca         1 FBN       0.045100
     31 C47        -10.9980     5.6590    -7.9300 ca         1 FBN      -0.016000
     32 C48        -10.3490     4.7370    -7.1250 ca         1 FBN      -0.461200
     33 C49         -8.9730     4.6650    -7.1170 ca         1 FBN       0.008000
     34 O52         -8.1610     7.3110    -9.5110 oh         1 FBN      -0.461100
     35 O53        -10.9120     7.4250    -9.5180 oh         1 FBN      -0.487100
     36 N54        -11.1390     3.8190    -6.2740 no         1 FBN       1.050200
     37 O55        -12.3550     3.8770    -6.2810 o          1 FBN      -0.449000
     38 O56        -10.5720     3.0070    -5.5630 o          1 FBN      -0.449000
     39 H3           3.0820    -0.0000     1.0970 h5         1 FBN      -0.002900
     40 H9          -3.1400    -0.0030    -0.8430 h5         1 FBN       0.040800
     41 HN11        -1.3910    -0.5140     3.7820 hn         1 FBN       0.276800
     42 HN1A        -0.1230     0.4840     4.4160 hn         1 FBN       0.276800
     43 H15          0.1430     0.5850    -2.6650 h2         1 FBN       0.074700
     44 H17         -1.0610     0.6590    -5.0110 h1         1 FBN       0.054700
     45 H18         -2.1720    -2.0580    -4.3350 h1         1 FBN       0.013700
     46 H19         -1.1220    -2.1220    -2.2910 h1         1 FBN       0.021700
     47 HO21        -0.6890    -2.5030    -5.8040 ho         1 FBN       0.390000
     48 HO23         0.8880    -2.6740    -2.8180 ho         1 FBN       0.394000
     49 H27         -3.0910    -0.3300    -6.1250 h1         1 FBN       0.047700
     50 H27A        -3.8900    -0.3860    -4.5480 h1         1 FBN       0.047700
     51 H32         -3.9440     1.6810    -7.4520 h4         1 FBN       0.163000
     52 H37         -4.2560     5.4510    -6.7900 h1         1 FBN       0.034700
     53 H37A        -4.3010     4.2700    -8.1070 h1         1 FBN       0.034700
     54 HN38        -6.6570     3.9420    -6.5490 hn         1 FBN       0.182500
     55 H47        -12.0800     5.7070    -7.9320 ha         1 FBN       0.144000
     56 H49         -8.4720     3.9420    -6.4850 ha         1 FBN       0.134000
     57 HO52        -8.2060     8.1840    -9.1560 ho         1 FBN       0.424000
     58 HO53       -11.0960     7.0360   -10.3570 ho         1 FBN       0.415000
@<TRIPOS>BOND
     1     1     2 ar  
     2     1     6 ar  
     3     1     9 1   
     4     2     3 ar  
     5     3     4 ar  
     6     3    39 1   
     7     4     5 ar  
     8     5     6 ar  
     9     5    10 1   
    10     6     7 1   
    11     7     8 2   
    12     8     9 1   
    13     8    40 1   
    14     9    11 1   
    15    10    41 1   
    16    10    42 1   
    17    11    12 1   
    18    11    15 1   
    19    11    43 1   
    20    12    13 1   
    21    13    14 1   
    22    13    18 1   
    23    13    44 1   
    24    14    15 1   
    25    14    16 1   
    26    14    45 1   
    27    15    17 1   
    28    15    46 1   
    29    16    47 1   
    30    17    48 1   
    31    18    19 1   
    32    18    49 1   
    33    18    50 1   
    34    19    20 1   
    35    19    23 1   
    36    20    21 2   
    37    20    51 1   
    38    21    22 1   
    39    21    24 1   
    40    22    23 2   
    41    24    25 1   
    42    24    52 1   
    43    24    53 1   
    44    25    26 1   
    45    25    54 1   
    46    26    27 1   
    47    26    28 2   
    48    27    29 ar  
    49    27    33 ar  
    50    29    30 ar  
    51    29    34 1   
    52    30    31 ar  
    53    30    35 1   
    54    31    32 ar  
    55    31    55 1   
    56    32    33 ar  
    57    32    36 1   
    58    33    56 1   
    59    34    57 1   
    60    35    58 1   
    61    36    37 1   
    62    36    38 1   
@<TRIPOS>SUBSTRUCTURE
     1 FBN         1 TEMP              0 ****  ****    0 ROOT
