@<TRIPOS>MOLECULE
FBO
   63    64     1     0     0
SMALL
bcc


@<TRIPOS>ATOM
      1 C1           0.0000     0.0000     0.0000 ca         1 FBO      -0.074500
      2 C2           1.3830     0.0000     0.0000 ca         1 FBO      -0.063000
      3 C3           2.0740     0.0000     1.1970 ca         1 FBO      -0.074500
      4 C4           1.3830     0.0000     2.3940 ca         1 FBO      -0.101500
      5 C5           0.0010     0.0010     2.3940 ca         1 FBO      -0.178300
      6 C6          -0.6910    -0.0010     1.1970 ca         1 FBO      -0.101500
      7 C7          -0.7530     0.0010     3.6990 c3         1 FBO       0.040900
      8 C8          -1.0080     1.4430     4.1410 c3         1 FBO      -0.151500
      9 C9          -1.8660     1.4450     5.3800 c          1 FBO       0.557100
     10 N10         -3.1990     1.2770     5.2770 ns         1 FBO      -0.078900
     11 O11         -1.3570     1.5970     6.4700 o          1 FBO      -0.644100
     12 N12          0.2740     2.1000     4.4330 nz         1 FBO       0.086400
     13 C13         -6.8820     5.0060     4.7580 c3         1 FBO       0.068000
     14 C14         -4.0330     1.2800     6.4800 c3         1 FBO      -0.065300
     15 C15         -5.4590     1.6940     6.1120 c3         1 FBO      -0.038400
     16 C16         -5.4580     3.1420     5.6190 c3         1 FBO      -0.023400
     17 C17         -6.8840     3.5570     5.2510 c3         1 FBO      -0.041400
     18 N18         -8.2470     5.4030     4.4050 ns         1 FBO      -0.185900
     19 C20         -8.4890     6.6460     3.9440 c          1 FBO       0.683100
     20 O21         -9.7440     7.0110     3.6190 os         1 FBO      -0.418900
     21 O22         -7.5750     7.4370     3.8190 o          1 FBO      -0.661000
     22 C23         -9.9310     8.3660     3.1280 c3         1 FBO       0.305700
     23 C24        -11.3880     8.5910     2.8200 ca         1 FBO      -0.128300
     24 C25        -12.2350     9.0760     3.7990 ca         1 FBO      -0.074500
     25 C26        -13.5720     9.2840     3.5160 ca         1 FBO      -0.104000
     26 C27        -14.0630     9.0060     2.2530 ca         1 FBO      -0.084000
     27 C28        -13.2160     8.5220     1.2740 ca         1 FBO      -0.104000
     28 C29        -11.8770     8.3190     1.5560 ca         1 FBO      -0.074500
     29 C30         -4.0520    -0.1030     7.0800 c          1 FBO       0.557100
     30 O31         -3.4290    -1.0010     6.5540 o          1 FBO      -0.627100
     31 N32         -4.7600    -0.3410     8.2020 ns         1 FBO      -0.022400
     32 O33         -4.7780    -1.6400     8.7660 oh         1 FBO      -0.428100
     33 H1          -0.5420    -0.0010    -0.9380 ha         1 FBO       0.121000
     34 H2           1.9250     0.0000    -0.9380 ha         1 FBO       0.122000
     35 H3           3.1570    -0.0000     1.1970 ha         1 FBO       0.121000
     36 H4           1.9250     0.0010     3.3330 ha         1 FBO       0.103500
     37 H6          -1.7750    -0.0000     1.1970 ha         1 FBO       0.103500
     38 H7          -1.7000    -0.5100     3.5690 hc         1 FBO       0.063700
     39 H7A         -0.1680    -0.5100     4.4540 hc         1 FBO       0.063700
     40 H8          -1.5170     1.9790     3.3490 hx         1 FBO       0.091700
     41 HN10        -3.6150     1.1180     4.3800 hn         1 FBO       0.184500
     42 HN12         0.8540     1.4790     4.9620 hn         1 FBO       0.231467
     43 HN1A         0.1090     2.9340     4.9610 hn         1 FBO       0.231467
     44 H13         -6.2450     5.0900     3.8850 h1         1 FBO       0.024200
     45 H13A        -6.5090     5.6540     5.5410 h1         1 FBO       0.024200
     46 H14         -3.6270     1.9800     7.2000 h1         1 FBO       0.074700
     47 H15         -5.8320     1.0460     5.3290 hc         1 FBO       0.037200
     48 H15A        -6.0960     1.6110     6.9850 hc         1 FBO       0.037200
     49 H16         -5.0840     3.7900     6.4020 hc         1 FBO       0.015700
     50 H16A        -4.8210     3.2260     4.7460 hc         1 FBO       0.015700
     51 H17         -7.5210     3.4740     6.1230 hc         1 FBO       0.024700
     52 H17A        -7.2580     2.9100     4.4670 hc         1 FBO       0.024700
     53 HN18        -9.0020     4.7560     4.5200 hn         1 FBO       0.180500
     54 H23         -9.6080     9.0710     3.8840 h1         1 FBO       0.015200
     55 H23A        -9.3450     8.5080     2.2280 h1         1 FBO       0.015200
     56 H25        -11.8510     9.2940     4.7890 ha         1 FBO       0.105000
     57 H26        -14.2350     9.6640     4.2840 ha         1 FBO       0.106500
     58 H27        -15.1110     9.1670     2.0320 ha         1 FBO       0.106000
     59 H28        -13.5990     8.3060     0.2840 ha         1 FBO       0.106500
     60 H29        -11.2140     7.9390     0.7890 ha         1 FBO       0.105000
     61 HN32        -5.2400     0.4090     8.6600 hn         1 FBO       0.159500
     62 HO33        -5.1440    -1.6010     9.6340 ho         1 FBO       0.405000
     63 H123         0.7340     2.3290     3.5740 hn         1 FBO       0.231467
@<TRIPOS>BOND
     1     1     2 ar  
     2     1     6 ar  
     3     1    33 1   
     4     2     3 ar  
     5     2    34 1   
     6     3     4 ar  
     7     3    35 1   
     8     4     5 ar  
     9     4    36 1   
    10     5     6 ar  
    11     5     7 1   
    12     6    37 1   
    13     7     8 1   
    14     7    38 1   
    15     7    39 1   
    16     8     9 1   
    17     8    12 1   
    18     8    40 1   
    19     9    10 1   
    20     9    11 2   
    21    10    14 1   
    22    10    41 1   
    23    12    42 1   
    24    12    43 1   
    25    12    63 1   
    26    13    17 1   
    27    13    18 1   
    28    13    44 1   
    29    13    45 1   
    30    14    15 1   
    31    14    29 1   
    32    14    46 1   
    33    15    16 1   
    34    15    47 1   
    35    15    48 1   
    36    16    17 1   
    37    16    49 1   
    38    16    50 1   
    39    17    51 1   
    40    17    52 1   
    41    18    19 1   
    42    18    53 1   
    43    19    20 1   
    44    19    21 2   
    45    20    22 1   
    46    22    23 1   
    47    22    54 1   
    48    22    55 1   
    49    23    24 ar  
    50    23    28 ar  
    51    24    25 ar  
    52    24    56 1   
    53    25    26 ar  
    54    25    57 1   
    55    26    27 ar  
    56    26    58 1   
    57    27    28 ar  
    58    27    59 1   
    59    28    60 1   
    60    29    30 2   
    61    29    31 1   
    62    31    32 1   
    63    31    61 1   
    64    32    62 1   
@<TRIPOS>SUBSTRUCTURE
     1 FBO         1 TEMP              0 ****  ****    0 ROOT
