@<TRIPOS>MOLECULE
molecule
   63    64     1     0     0
SMALL
bcc


@<TRIPOS>ATOM
      1 C1           0.0000     0.0000     0.0000 ca         1 FBO      -0.106500
      2 C2           1.3830     0.0000     0.0000 ca         1 FBO      -0.097000
      3 C3           2.0740     0.0000     1.1970 ca         1 FBO      -0.106500
      4 C4           1.3830     0.0000     2.3940 ca         1 FBO      -0.132500
      5 C5           0.0010     0.0010     2.3940 ca         1 FBO      -0.155300
      6 C6          -0.6910    -0.0010     1.1970 ca         1 FBO      -0.132500
      7 C7          -0.7530     0.0010     3.6990 c3         1 FBO      -0.044100
      8 C8          -1.0080     1.4430     4.1410 c3         1 FBO       0.030500
      9 C9          -1.8660     1.4450     5.3800 c          1 FBO       0.649100
     10 N10         -3.1990     1.2770     5.2770 ns         1 FBO      -0.523900
     11 O11         -1.3570     1.5970     6.4700 o          1 FBO      -0.593100
     12 N12          0.2740     2.1000     4.4330 nz         1 FBO      -0.793600
     13 C13         -6.8820     5.0060     4.7580 c3         1 FBO       0.136000
     14 C14         -4.0330     1.2800     6.4800 c3         1 FBO       0.047700
     15 C15         -5.4590     1.6940     6.1120 c3         1 FBO      -0.095400
     16 C16         -5.4580     3.1420     5.6190 c3         1 FBO      -0.080400
     17 C17         -6.8840     3.5570     5.2510 c3         1 FBO      -0.103400
     18 N18         -8.2470     5.4030     4.4050 ns         1 FBO      -0.580900
     19 C20         -8.4890     6.6460     3.9440 c          1 FBO       0.752100
     20 O21         -9.7440     7.0110     3.6190 os         1 FBO      -0.433900
     21 O22         -7.5750     7.4370     3.8190 o          1 FBO      -0.615000
     22 C23         -9.9310     8.3660     3.1280 c3         1 FBO       0.217700
     23 C24        -11.3880     8.5910     2.8200 ca         1 FBO      -0.108300
     24 C25        -12.2350     9.0760     3.7990 ca         1 FBO      -0.102500
     25 C26        -13.5720     9.2840     3.5160 ca         1 FBO      -0.131000
     26 C27        -14.0630     9.0060     2.2530 ca         1 FBO      -0.111000
     27 C28        -13.2160     8.5220     1.2740 ca         1 FBO      -0.131000
     28 C29        -11.8770     8.3190     1.5560 ca         1 FBO      -0.102500
     29 C30         -4.0520    -0.1030     7.0800 c          1 FBO       0.658100
     30 O31         -3.4290    -1.0010     6.5540 o          1 FBO      -0.574100
     31 N32         -4.7600    -0.3410     8.2020 ns         1 FBO      -0.458400
     32 O33         -4.7780    -1.6400     8.7660 oh         1 FBO      -0.348100
     33 H1          -0.5420    -0.0010    -0.9380 ha         1 FBO       0.153500
     34 H2           1.9250     0.0000    -0.9380 ha         1 FBO       0.156000
     35 H3           3.1570    -0.0000     1.1970 ha         1 FBO       0.153500
     36 H4           1.9250     0.0010     3.3330 ha         1 FBO       0.128000
     37 H6          -1.7750    -0.0000     1.1970 ha         1 FBO       0.128000
     38 H7          -1.7000    -0.5100     3.5690 hc         1 FBO       0.102200
     39 H7A         -0.1680    -0.5100     4.4540 hc         1 FBO       0.102200
     40 H8          -1.5170     1.9790     3.3490 hx         1 FBO       0.118700
     41 HN10        -3.6150     1.1180     4.3800 hn         1 FBO       0.335500
     42 HN12         0.8540     1.4790     4.9620 hn         1 FBO       0.463133
     43 HN1A         0.1090     2.9340     4.9610 hn         1 FBO       0.463133
     44 H13         -6.2450     5.0900     3.8850 h1         1 FBO       0.052200
     45 H13A        -6.5090     5.6540     5.5410 h1         1 FBO       0.052200
     46 H14         -3.6270     1.9800     7.2000 h1         1 FBO       0.103700
     47 H15         -5.8320     1.0460     5.3290 hc         1 FBO       0.069200
     48 H15A        -6.0960     1.6110     6.9850 hc         1 FBO       0.069200
     49 H16         -5.0840     3.7900     6.4020 hc         1 FBO       0.045200
     50 H16A        -4.8210     3.2260     4.7460 hc         1 FBO       0.045200
     51 H17         -7.5210     3.4740     6.1230 hc         1 FBO       0.055700
     52 H17A        -7.2580     2.9100     4.4670 hc         1 FBO       0.055700
     53 HN18        -9.0020     4.7560     4.5200 hn         1 FBO       0.326500
     54 H23         -9.6080     9.0710     3.8840 h1         1 FBO       0.057700
     55 H23A        -9.3450     8.5080     2.2280 h1         1 FBO       0.057700
     56 H25        -11.8510     9.2940     4.7890 ha         1 FBO       0.132500
     57 H26        -14.2350     9.6640     4.2840 ha         1 FBO       0.135500
     58 H27        -15.1110     9.1670     2.0320 ha         1 FBO       0.135000
     59 H28        -13.5990     8.3060     0.2840 ha         1 FBO       0.135500
     60 H29        -11.2140     7.9390     0.7890 ha         1 FBO       0.132500
     61 HN32        -5.2400     0.4090     8.6600 hn         1 FBO       0.325500
     62 HO33        -5.1440    -1.6010     9.6340 ho         1 FBO       0.411000
     63 H123         0.7340     2.3290     3.5740 hn         1 FBO       0.463133
@<TRIPOS>BOND
     1     1     2 ar
     2     1     6 ar
     3     2     3 ar
     4     3     4 ar
     5     4     5 ar
     6     5     6 ar
     7     5     7 1
     8     7     8 1
     9     8     9 1
    10     8    12 1
    11     9    10 1
    12     9    11 2
    13    10    14 1
    14    13    17 1
    15    13    18 1
    16    14    15 1
    17    14    29 1
    18    15    16 1
    19    16    17 1
    20    18    19 1
    21    19    20 1
    22    19    21 2
    23    20    22 1
    24    22    23 1
    25    23    24 ar
    26    23    28 ar
    27    24    25 ar
    28    25    26 ar
    29    26    27 ar
    30    27    28 ar
    31    29    30 2
    32    29    31 1
    33    31    32 1
    34     1    33 1
    35     2    34 1
    36     3    35 1
    37     4    36 1
    38     6    37 1
    39     7    38 1
    40     7    39 1
    41     8    40 1
    42    10    41 1
    43    12    42 1
    44    12    43 1
    45    13    44 1
    46    13    45 1
    47    14    46 1
    48    15    47 1
    49    15    48 1
    50    16    49 1
    51    16    50 1
    52    17    51 1
    53    17    52 1
    54    18    53 1
    55    22    54 1
    56    22    55 1
    57    24    56 1
    58    25    57 1
    59    26    58 1
    60    27    59 1
    61    28    60 1
    62    31    61 1
    63    32    62 1
    64    63    12 1
@<TRIPOS>SUBSTRUCTURE
     1 FBO         1 TEMP              0 ****  ****    0 ROOT
