@<TRIPOS>MOLECULE
molecule
   47    49     1     0     0
SMALL
bcc


@<TRIPOS>ATOM
      1 N1           0.0000     0.0000     0.0000 nb         1 FBQ      -0.695000
      2 C2           1.3380     0.0000     0.0000 ca         1 FBQ       0.455600
      3 C3           2.0430     0.0000     1.2260 ca         1 FBQ      -0.218300
      4 C4           1.3120    -0.0010     2.4370 ca         1 FBQ       0.250600
      5 C5          -0.0720     0.0050     2.3590 ca         1 FBQ      -0.228600
      6 C6          -0.6900    -0.0010     1.1180 ca         1 FBQ       0.472600
      7 C7           3.4470     0.0010     1.2200 ca         1 FBQ       0.165900
      8 C8           4.1150     0.0010     0.0290 ca         1 FBQ      -0.184000
      9 C9           3.4220     0.0010    -1.1770 ca         1 FBQ      -0.092000
     10 C10          2.0600     0.0010    -1.2050 ca         1 FBQ      -0.187300
     11 N11          1.9600    -0.0010     3.6630 nv         1 FBQ      -0.983200
     12 C12         -0.9000     0.0050     3.6180 c3         1 FBQ       0.068000
     13 S13         -1.2270     1.7150     4.1270 ss         1 FBQ      -0.319200
     14 C14         -2.2120     1.4150     5.6190 c3         1 FBQ       0.058000
     15 C15         -2.6080     2.7350     6.2320 ca         1 FBQ      -0.086300
     16 C16         -1.7930     3.3310     7.1750 ca         1 FBQ      -0.067000
     17 C17         -2.1550     4.5430     7.7340 ca         1 FBQ      -0.138300
     18 C18         -3.3360     5.1530     7.3560 ca         1 FBQ      -0.074000
     19 C19         -4.1540     4.5530     6.4160 ca         1 FBQ      -0.138000
     20 C20         -3.7900     3.3440     5.8550 ca         1 FBQ      -0.090000
     21 C21         -1.2640     5.1960     8.7580 c3         1 FBQ       0.368900
     22 C22         -0.2650     6.1140     8.0530 c3         1 FBQ       0.610900
     23 F23          0.5630     6.7210     9.0040 f          1 FBQ      -0.214300
     24 F24          0.5150     5.3620     7.1670 f          1 FBQ      -0.214300
     25 F25         -0.9590     7.0990     7.3410 f          1 FBQ      -0.214300
     26 O26         -2.0610     5.9650     9.6620 oh         1 FBQ      -0.603300
     27 F27          4.1320    -0.0000     2.3840 f          1 FBQ      -0.131900
     28 C28         -2.1950    -0.0020     1.0490 c3         1 FBQ      -0.151400
     29 OS6         -0.5560     4.1900     9.4840 oh         1 FBQ      -0.603300
     30 HC8          5.1990     0.0010     0.0240 ha         1 FBQ       0.145000
     31 HC9          3.9740     0.0020    -2.1090 ha         1 FBQ       0.138000
     32 HC01         1.5360     0.0020    -2.1530 ha         1 FBQ       0.152000
     33 H111         2.2070     0.8650     4.0980 hn         1 FBQ       0.442300
     34 H112         2.1880    -0.8680     4.1080 hn         1 FBQ       0.442300
     35 H121        -0.3620    -0.5090     4.4040 h1         1 FBQ       0.065200
     36 H122        -1.8390    -0.5020     3.4320 h1         1 FBQ       0.065200
     37 H141        -3.1030     0.8570     5.3580 h1         1 FBQ       0.063200
     38 H142        -1.6250     0.8480     6.3320 h1         1 FBQ       0.063200
     39 HC61        -0.8670     2.8520     7.4720 ha         1 FBQ       0.154000
     40 HC81        -3.6200     6.1020     7.7950 ha         1 FBQ       0.152000
     41 HC91        -5.0800     5.0310     6.1200 ha         1 FBQ       0.138000
     42 HC02        -4.4310     2.8740     5.1190 ha         1 FBQ       0.137000
     43 HO62        -1.6420     5.9910    10.5060 ho         1 FBQ       0.427000
     44 H281        -2.5100    -0.0020     0.0120 hc         1 FBQ       0.057700
     45 H282        -2.5790    -0.8860     1.5430 hc         1 FBQ       0.057700
     46 H283        -2.5800     0.8830     1.5420 hc         1 FBQ       0.057700
     47 H6SO        -0.9960     4.0230    10.3010 ho         1 FBQ       0.427000
@<TRIPOS>BOND
     1     1     2 ar
     2     1     6 ar
     3     2     3 ar
     4     2    10 ar
     5     3     4 ar
     6     3     7 ar
     7     4     5 ar
     8     4    11 1
     9     5     6 ar
    10     5    12 1
    11     6    28 1
    12     7     8 ar
    13     7    27 1
    14     8     9 ar
    15     8    30 1
    16     9    10 ar
    17     9    31 1
    18    10    32 1
    19    11    33 1
    20    11    34 1
    21    12    13 1
    22    12    35 1
    23    12    36 1
    24    13    14 1
    25    14    15 1
    26    14    37 1
    27    14    38 1
    28    15    16 ar
    29    15    20 ar
    30    16    17 ar
    31    16    39 1
    32    17    18 ar
    33    17    21 1
    34    18    19 ar
    35    18    40 1
    36    19    20 ar
    37    19    41 1
    38    20    42 1
    39    21    22 1
    40    21    26 1
    41    21    29 1
    42    22    23 1
    43    22    24 1
    44    22    25 1
    45    26    43 1
    46    28    44 1
    47    28    45 1
    48    28    46 1
    49    29    47 1
@<TRIPOS>SUBSTRUCTURE
     1 FBQ         1 TEMP              0 ****  ****    0 ROOT
