@<TRIPOS>MOLECULE
molecule
   39    41     1     0     0
SMALL
bcc


@<TRIPOS>ATOM
      1 C1           0.0000     0.0000     0.0000 c3         1 FBR      -0.033800
      2 C2           1.5330     0.0000     0.0000 c3         1 FBR      -0.071400
      3 C3           2.0820     1.1500     0.8290 c3         1 FBR      -0.164400
      4 C4           1.4520     1.2350     2.2060 c          1 FBR       0.567300
      5 O5           2.0060     1.8980     3.0850 o          1 FBR      -0.508100
      6 C6           0.1450     0.5390     2.4750 ce         1 FBR      -0.144500
      7 Br7         -0.3620     0.4540     4.2740 br         1 FBR      -0.036700
      8 C8          -0.5230     0.0000     1.4390 cf         1 FBR       0.038600
      9 C9          -1.7540    -0.8120     1.4120 ca         1 FBR      -0.090800
     10 C10         -2.8260    -0.9040     2.2900 ca         1 FBR      -0.076000
     11 C11         -3.8820    -1.7720     1.9900 ca         1 FBR      -0.183000
     12 C12         -3.8720    -2.5340     0.8160 ca         1 FBR       0.148100
     13 O13         -4.9080    -3.3730     0.5450 oh         1 FBR      -0.528100
     14 C14         -2.8100    -2.4270    -0.0790 ca         1 FBR      -0.171000
     15 C15         -1.7720    -1.5560     0.2240 ca         1 FBR      -0.064300
     16 C16         -0.5560    -1.3070    -0.6170 c3         1 FBR      -0.032100
     17 C17         -0.5560     1.2190    -0.7680 c3         1 FBR      -0.066400
     18 C18         -0.0750     1.2100    -2.2090 c3         1 FBR      -0.084400
     19 C19         -0.6490     2.4040    -2.9720 c3         1 FBR      -0.083400
     20 C20         -0.2090     2.3990    -4.4270 c3         1 FBR      -0.090100
     21 H21          1.8860    -0.9360     0.4150 hc         1 FBR       0.055200
     22 H22          1.8870     0.0980    -1.0190 hc         1 FBR       0.055200
     23 H31          1.8950     2.0780     0.3030 hc         1 FBR       0.076700
     24 H32          3.1510     1.0160     0.9430 hc         1 FBR       0.076700
     25 H10         -2.5110    -0.9770     3.3240 ha         1 FBR       0.150000
     26 H11         -4.2070    -2.3430     2.8520 ha         1 FBR       0.151000
     27 HO13        -5.5420    -2.9270     0.0090 ho         1 FBR       0.436000
     28 H14         -2.4550    -3.3930    -0.4180 ha         1 FBR       0.155000
     29 H161        -0.8300    -1.1560    -1.6550 hc         1 FBR       0.070200
     30 H162         0.1560    -2.1160    -0.5120 hc         1 FBR       0.070200
     31 H171        -1.6390     1.1870    -0.7530 hc         1 FBR       0.054200
     32 H172        -0.2200     2.1290    -0.2850 hc         1 FBR       0.054200
     33 H181         1.0070     1.2630    -2.2250 hc         1 FBR       0.042200
     34 H182        -0.3960     0.2930    -2.6880 hc         1 FBR       0.042200
     35 H191        -1.7310     2.3640    -2.9300 hc         1 FBR       0.041200
     36 H192        -0.3100     3.3200    -2.5030 hc         1 FBR       0.041200
     37 H201         0.8710     2.4640    -4.4780 hc         1 FBR       0.034033
     38 H202        -0.6470     3.2470    -4.9390 hc         1 FBR       0.034033
     39 H203        -0.5390     1.4820    -4.9000 hc         1 FBR       0.034033
@<TRIPOS>BOND
     1     1     2 1
     2     1     8 1
     3     1    16 1
     4     1    17 1
     5     2     3 1
     6     2    21 1
     7     2    22 1
     8     3     4 1
     9     3    23 1
    10     3    24 1
    11     4     5 2
    12     4     6 1
    13     6     7 1
    14     6     8 2
    15     8     9 1
    16     9    10 ar
    17     9    15 ar
    18    10    11 ar
    19    10    25 1
    20    11    12 ar
    21    11    26 1
    22    12    13 1
    23    12    14 ar
    24    13    27 1
    25    14    15 ar
    26    14    28 1
    27    15    16 1
    28    16    29 1
    29    16    30 1
    30    17    18 1
    31    17    31 1
    32    17    32 1
    33    18    19 1
    34    18    33 1
    35    18    34 1
    36    19    20 1
    37    19    35 1
    38    19    36 1
    39    20    37 1
    40    20    38 1
    41    20    39 1
@<TRIPOS>SUBSTRUCTURE
     1 FBR         1 TEMP              0 ****  ****    0 ROOT
