@<TRIPOS>MOLECULE
FBR
   39    41     1     0     0
SMALL
bcc


@<TRIPOS>ATOM
      1 C1         -0.1260    0.0440   -0.0780 c3        1 FBR     -0.025800
      2 C2          1.3830   -0.1260   -0.1870 c3        1 FBR     -0.066400
      3 C3          2.0510   -0.0720    1.1700 c3        1 FBR     -0.175400
      4 C4          1.2340   -0.6360    2.3060 c         1 FBR      0.581300
      5 O5          1.5800   -0.4350    3.4740 o         1 FBR     -0.513100
      6 C6          0.0230   -1.4130    1.9410 ce        1 FBR     -0.163500
      7 BR7        -0.4490   -2.8250    3.0700 br        1 FBR     -0.047700
      8 C8         -0.6470   -1.0830    0.8200 cf        1 FBR      0.047600
      9 C9         -1.7960   -1.6880    0.1600 ca        1 FBR     -0.120800
     10 C10        -2.7240   -2.6180    0.6180 ca        1 FBR     -0.045000
     11 C11        -3.7400   -3.0560   -0.2330 ca        1 FBR     -0.173000
     12 C12        -3.8180   -2.5560   -1.5420 ca        1 FBR      0.148100
     13 O13        -4.8420   -3.0400   -2.3200 oh        1 FBR     -0.492100
     14 C14        -2.8960   -1.6060   -2.0220 ca        1 FBR     -0.213000
     15 C15        -1.8990   -1.1800   -1.1640 ca        1 FBR     -0.023300
     16 C16        -0.8300   -0.1750   -1.4410 c3        1 FBR     -0.038100
     17 C17        -0.5200    1.3930    0.5190 c3        1 FBR     -0.071400
     18 C18         0.0780    2.5800   -0.2060 c3        1 FBR     -0.078400
     19 C19        -0.5450    3.8760    0.2740 c3        1 FBR     -0.081400
     20 C20         0.0750    5.0690   -0.4050 c3        1 FBR     -0.093100
     21 H21         1.6000   -1.1150   -0.6740 hc        1 FBR      0.054200
     22 H22         1.8080    0.6720   -0.8490 hc        1 FBR      0.054200
     23 H31         3.0220   -0.6360    1.1370 hc        1 FBR      0.077200
     24 H32         2.2960    0.9950    1.4290 hc        1 FBR      0.077200
     25 H10        -2.6740   -3.0110    1.6460 ha        1 FBR      0.157000
     26 H11        -4.4820   -3.7910    0.1100 ha        1 FBR      0.156000
     27 HO13       -4.7840   -2.6180   -3.1900 ho        1 FBR      0.422000
     28 H14        -2.9730   -1.2170   -3.0460 ha        1 FBR      0.140000
     29 H161       -0.1100   -0.5650   -2.2030 hc        1 FBR      0.067200
     30 H162       -1.2670    0.7780   -1.8320 hc        1 FBR      0.067200
     31 H171       -0.1950    1.4200    1.5940 hc        1 FBR      0.054200
     32 H172       -1.6400    1.4720    0.5080 hc        1 FBR      0.054200
     33 H181       -0.0750    2.4790   -1.3120 hc        1 FBR      0.039700
     34 H182        1.1850    2.6140   -0.0260 hc        1 FBR      0.039700
     35 H191       -0.4140    3.9630    1.3850 hc        1 FBR      0.042700
     36 H192       -1.6480    3.8580    0.0720 hc        1 FBR      0.042700
     37 H201       -0.0610    5.0090   -1.5120 hc        1 FBR      0.034033
     38 H202        1.1700    5.1220   -0.1900 hc        1 FBR      0.034033
     39 H203       -0.4000    6.0120   -0.0420 hc        1 FBR      0.034033
@<TRIPOS>BOND
     1    1    2 1   
     2    1    8 1   
     3    1   16 1   
     4    1   17 1   
     5    2    3 1   
     6    2   21 1   
     7    2   22 1   
     8    3    4 1   
     9    3   23 1   
    10    3   24 1   
    11    4    5 2   
    12    4    6 1   
    13    6    7 1   
    14    6    8 2   
    15    8    9 1   
    16    9   10 ar  
    17    9   15 ar  
    18   10   11 ar  
    19   10   25 1   
    20   11   12 ar  
    21   11   26 1   
    22   12   13 1   
    23   12   14 ar  
    24   13   27 1   
    25   14   15 ar  
    26   14   28 1   
    27   15   16 1   
    28   16   29 1   
    29   16   30 1   
    30   17   18 1   
    31   17   31 1   
    32   17   32 1   
    33   18   19 1   
    34   18   33 1   
    35   18   34 1   
    36   19   20 1   
    37   19   35 1   
    38   19   36 1   
    39   20   37 1   
    40   20   38 1   
    41   20   39 1   
@<TRIPOS>SUBSTRUCTURE
     1 FBR         1 TEMP              0 ****  ****    0 ROOT
