@<TRIPOS>MOLECULE
molecule
   18    18     1     0     0
SMALL
bcc


@<TRIPOS>ATOM
      1 C01          0.0000     0.0000     0.0000 ca         1 FBS       0.243900
      2 C02          1.3850     0.0000     0.0000 ca         1 FBS      -0.173000
      3 C03          2.0750     0.0000     1.1980 ca         1 FBS       0.000000
      4 C04          1.3850    -0.0010     2.3950 ca         1 FBS      -0.366500
      5 C05          0.0020    -0.0020     2.3970 ca         1 FBS       0.000000
      6 C06         -0.6910    -0.0010     1.2000 ca         1 FBS      -0.173000
      7 S07          2.2660    -0.0020     3.9200 sy         1 FBS       1.231200
      8 O08          1.3850    -0.5480     4.8920 o          1 FBS      -0.515300
      9 O09          3.5490    -0.5470     3.6410 o          1 FBS      -0.515300
     10 NP0          2.5120     1.5790     4.3460 nz         1 FBS      -0.807500
     11 F11         -0.6760     0.0060    -1.1690 f          1 FBS      -0.091900
     12 HC2          1.9270     0.0010    -0.9380 ha         1 FBS       0.182000
     13 HC3          3.1590     0.0000     1.1980 ha         1 FBS       0.163000
     14 HC5         -0.5380    -0.0030     3.3360 ha         1 FBS       0.163000
     15 HC6         -1.7740    -0.0010     1.2020 ha         1 FBS       0.182000
     16 HN01         3.0440     2.0380     3.6330 hn         1 FBS       0.492800
     17 HN02         1.6290     2.0370     4.4510 hn         1 FBS       0.492800
     18 HP03         3.0120     1.6170     5.2120 hn         1 FBS       0.492800
@<TRIPOS>BOND
     1     1     2 ar
     2     1     6 ar
     3     1    11 1
     4     2     3 ar
     5     2    12 1
     6     3     4 ar
     7     3    13 1
     8     4     5 ar
     9     4     7 1
    10     5     6 ar
    11     5    14 1
    12     6    15 1
    13     7     8 2
    14     7     9 2
    15     7    10 1
    16    10    16 1
    17    10    17 1
    18    18    10 1
@<TRIPOS>SUBSTRUCTURE
     1 FBS         1 TEMP              0 ****  ****    0 ROOT
