@<TRIPOS>MOLECULE
FBT
   18    18     1     0     0
SMALL
bcc


@<TRIPOS>ATOM
      1 C01          0.0000     0.0000     0.0000 ca         1 FBT       0.059000
      2 C02          1.3820     0.0000     0.0000 ca         1 FBT      -0.147500
      3 C03          2.0750     0.0000     1.1980 ca         1 FBT       0.242400
      4 C04          1.3830    -0.0020     2.3970 ca         1 FBT      -0.309500
      5 C05         -0.0010    -0.0090     2.3960 ca         1 FBT       0.242400
      6 C06         -0.6920    -0.0020     1.1950 ca         1 FBT      -0.147500
      7 S07          2.2630    -0.0040     3.9230 sy         1 FBT       0.956200
      8 O08          3.5500    -0.5280     3.6260 o          1 FBT      -0.476800
      9 O09          1.3630    -0.5320     4.8860 o          1 FBT      -0.476800
     10 NP0          2.5090     1.5750     4.3540 nz         1 FBT      -0.133500
     11 F11          3.4250     0.0010     1.1980 f          1 FBT      -0.095900
     12 F12         -0.6770    -0.0110     3.5650 f          1 FBT      -0.095900
     13 HC1         -0.5410     0.0030    -0.9390 ha         1 FBT       0.133000
     14 HC2          1.9230     0.0020    -0.9380 ha         1 FBT       0.151000
     15 HC6         -1.7750    -0.0050     1.1940 ha         1 FBT       0.151000
     16 HN01         3.1860     1.9860     3.7430 hn         1 FBT       0.316467
     17 HN02         2.8430     1.6150     5.2970 hn         1 FBT       0.316467
     18 HP03         1.6470     2.0780     4.2840 hn         1 FBT       0.316467
@<TRIPOS>BOND
     1     1     2 ar  
     2     1     6 ar  
     3     1    13 1   
     4     2     3 ar  
     5     2    14 1   
     6     3     4 ar  
     7     3    11 1   
     8     4     5 ar  
     9     4     7 1   
    10     5     6 ar  
    11     5    12 1   
    12     6    15 1   
    13     7     8 2   
    14     7     9 2   
    15     7    10 1   
    16    10    16 1   
    17    10    17 1   
    18    10    18 1   
@<TRIPOS>SUBSTRUCTURE
     1 FBT         1 TEMP              0 ****  ****    0 ROOT
