@<TRIPOS>MOLECULE
molecule
   18    18     1     0     0
SMALL
bcc


@<TRIPOS>ATOM
      1 C01          0.0000     0.0000     0.0000 ca         1 FBU      -0.119000
      2 C02          1.3840     0.0000     0.0000 ca         1 FBU       0.172900
      3 C03          2.0760     0.0000     1.1990 ca         1 FBU      -0.092000
      4 C04          1.3840    -0.0020     2.3950 ca         1 FBU      -0.297500
      5 C05          0.0030    -0.0070     2.3970 ca         1 FBU      -0.092000
      6 C06         -0.6910    -0.0010     1.1990 ca         1 FBU       0.172900
      7 S07          2.2660    -0.0040     3.9210 sy         1 FBU       1.241200
      8 O08          3.5520    -0.5300     3.6230 o          1 FBU      -0.507800
      9 O09          1.3660    -0.5300     4.8870 o          1 FBU      -0.507800
     10 NP0          2.5140     1.5750     4.3530 nz         1 FBU      -0.808500
     11 F11         -2.0410    -0.0010     1.2000 f          1 FBU      -0.095400
     12 F12          2.0600     0.0020    -1.1700 f          1 FBU      -0.095400
     13 HC1         -0.5420     0.0020    -0.9380 ha         1 FBU       0.195000
     14 HC3          3.1590     0.0020     1.2000 ha         1 FBU       0.175000
     15 HC5         -0.5370    -0.0080     3.3360 ha         1 FBU       0.175000
     16 HN01         3.0140     1.6090     5.2190 hn         1 FBU       0.494800
     17 HN02         3.0470     2.0350     3.6420 hn         1 FBU       0.494800
     18 HP03         1.6310     2.0340     4.4580 hn         1 FBU       0.494800
@<TRIPOS>BOND
     1     1     2 ar
     2     1     6 ar
     3     1    13 1
     4     2     3 ar
     5     2    12 1
     6     3     4 ar
     7     3    14 1
     8     4     5 ar
     9     4     7 1
    10     5     6 ar
    11     5    15 1
    12     6    11 1
    13     7     8 2
    14     7     9 2
    15     7    10 1
    16    10    16 1
    17    10    17 1
    18    18    10 1
@<TRIPOS>SUBSTRUCTURE
     1 FBU         1 TEMP              0 ****  ****    0 ROOT
