@<TRIPOS>MOLECULE
FBV
   18    18     1     0     0
SMALL
bcc


@<TRIPOS>ATOM
      1 C1           0.0000     0.0000     0.0000 ca         1 FBV       0.032000
      2 C2           1.3830     0.0000     0.0000 ca         1 FBV      -0.112000
      3 C3           2.0750     0.0000     1.1970 ca         1 FBV       0.050000
      4 C4           1.3850    -0.0010     2.3940 ca         1 FBV      -0.254500
      5 C5           0.0000    -0.0000     2.3950 ca         1 FBV       0.182900
      6 C6          -0.6910     0.0010     1.1970 ca         1 FBV      -0.125000
      7 S            2.2680    -0.0020     3.9190 sy         1 FBV       0.946200
      8 N2           1.9360     1.4310     4.6790 nz         1 FBV      -0.134500
      9 O1           1.6860    -1.0240     4.7180 o          1 FBV      -0.487300
     10 O2           3.6480     0.0310     3.5850 o          1 FBV      -0.487300
     11 F           -0.6740    -0.0000     3.5660 f          1 FBV      -0.116900
     12 H1          -0.5420     0.0000    -0.9380 ha         1 FBV       0.130000
     13 H2           1.9240     0.0000    -0.9380 ha         1 FBV       0.138000
     14 H6          -1.7750     0.0010     1.1960 ha         1 FBV       0.146000
     15 H3           3.1590    -0.0000     1.1960 ha         1 FBV       0.142000
     16 H21N         1.0230     1.3880     5.0880 hn         1 FBV       0.317133
     17 H22N         1.9680     2.1770     4.0130 hn         1 FBV       0.317133
     18 H23          2.6150     1.5940     5.3960 hn         1 FBV       0.317133
@<TRIPOS>BOND
     1     1     2 ar  
     2     1     6 ar  
     3     1    12 1   
     4     2     3 ar  
     5     2    13 1   
     6     3     4 ar  
     7     3    15 1   
     8     4     5 ar  
     9     4     7 1   
    10     5     6 ar  
    11     5    11 1   
    12     6    14 1   
    13     7     8 1   
    14     7     9 2   
    15     7    10 2   
    16     8    16 1   
    17     8    17 1   
    18     8    18 1   
@<TRIPOS>SUBSTRUCTURE
     1 FBV         1 TEMP              0 ****  ****    0 ROOT
