@<TRIPOS>MOLECULE
molecule
   18    18     1     0     0
SMALL
bcc


@<TRIPOS>ATOM
      1 C1           0.0000     0.0000     0.0000 ca         1 FBW      -0.069000
      2 C2           1.3850     0.0000     0.0000 ca         1 FBW       0.145900
      3 C3           2.0760     0.0000     1.2000 ca         1 FBW      -0.077000
      4 C4           1.3830    -0.0010     2.3960 ca         1 FBW      -0.319500
      5 C5           0.0010    -0.0020     2.3940 ca         1 FBW      -0.043000
      6 C6          -0.6910    -0.0010     1.1970 ca         1 FBW      -0.102000
      7 S            2.2620    -0.0020     3.9220 sy         1 FBW       1.232200
      8 N2           2.5070     1.5800     4.3480 nz         1 FBW      -0.807500
      9 O1           1.3800    -0.5470     4.8930 o          1 FBW      -0.511800
     10 O2           3.5460    -0.5460     3.6460 o          1 FBW      -0.511800
     11 F            2.0610     0.0000    -1.1700 f          1 FBW      -0.102900
     12 H1          -0.5420     0.0000    -0.9380 ha         1 FBW       0.181000
     13 H6          -1.7740    -0.0010     1.1970 ha         1 FBW       0.174000
     14 H3           3.1590     0.0000     1.2010 ha         1 FBW       0.171000
     15 H5          -0.5420    -0.0030     3.3320 ha         1 FBW       0.161000
     16 H21N         3.0390     2.0390     3.6360 hn         1 FBW       0.493467
     17 H22N         3.0060     1.6190     5.2150 hn         1 FBW       0.493467
     18 H23          1.6230     2.0380     4.4510 hn         1 FBW       0.493467
@<TRIPOS>BOND
     1     1     2 ar
     2     1     6 ar
     3     2     3 ar
     4     2    11 1
     5     3     4 ar
     6     4     5 ar
     7     4     7 1
     8     5     6 ar
     9     7     8 1
    10     7     9 2
    11     7    10 2
    12     1    12 1
    13     6    13 1
    14     3    14 1
    15     5    15 1
    16     8    16 1
    17     8    17 1
    18    18     8 1
@<TRIPOS>SUBSTRUCTURE
     1 FBW         1 TEMP              0 ****  ****    0 ROOT
