@<TRIPOS>MOLECULE
FBW
   18    18     1     0     0
SMALL
bcc


@<TRIPOS>ATOM
      1 C1           0.0000     0.0000     0.0000 ca         1 FBW      -0.026000
      2 C2           1.3850     0.0000     0.0000 ca         1 FBW       0.114900
      3 C3           2.0760     0.0000     1.2000 ca         1 FBW      -0.029000
      4 C4           1.3830    -0.0010     2.3960 ca         1 FBW      -0.205500
      5 C5           0.0010    -0.0020     2.3940 ca         1 FBW      -0.001000
      6 C6          -0.6910    -0.0010     1.1970 ca         1 FBW      -0.076000
      7 S            2.2620    -0.0020     3.9220 sy         1 FBW       0.940200
      8 N2           2.5070     1.5800     4.3480 nz         1 FBW      -0.130500
      9 O1           1.3800    -0.5470     4.8930 o          1 FBW      -0.490800
     10 O2           3.5460    -0.5460     3.6460 o          1 FBW      -0.490800
     11 F            2.0610     0.0000    -1.1700 f          1 FBW      -0.097900
     12 H1          -0.5420     0.0000    -0.9380 ha         1 FBW       0.141000
     13 H6          -1.7740    -0.0010     1.1970 ha         1 FBW       0.137000
     14 H3           3.1590     0.0000     1.2010 ha         1 FBW       0.142000
     15 H5          -0.5420    -0.0030     3.3320 ha         1 FBW       0.130000
     16 H21N         3.0390     2.0390     3.6360 hn         1 FBW       0.314800
     17 H22N         3.0060     1.6190     5.2150 hn         1 FBW       0.314800
     18 H23          1.6230     2.0380     4.4510 hn         1 FBW       0.314800
@<TRIPOS>BOND
     1     1     2 ar  
     2     1     6 ar  
     3     1    12 1   
     4     2     3 ar  
     5     2    11 1   
     6     3     4 ar  
     7     3    14 1   
     8     4     5 ar  
     9     4     7 1   
    10     5     6 ar  
    11     5    15 1   
    12     6    13 1   
    13     7     8 1   
    14     7     9 2   
    15     7    10 2   
    16     8    16 1   
    17     8    17 1   
    18     8    18 1   
@<TRIPOS>SUBSTRUCTURE
     1 FBW         1 TEMP              0 ****  ****    0 ROOT
