@<TRIPOS>MOLECULE
molecule
   48    50     1     0     0
SMALL
bcc


@<TRIPOS>ATOM
      1 C4           0.0000     0.0000     0.0000 ca         1 FBY       0.155400
      2 C14          5.8730     5.0450    -2.7840 c3         1 FBY      -0.103400
      3 C5           1.3830     0.0000     0.0000 ca         1 FBY      -0.197000
      4 C6           2.0770     0.0000     1.2020 ca         1 FBY       0.210600
      5 C11          7.4760     2.2270    -2.9960 c          1 FBY       0.706500
      6 C7           4.1710     0.6660     0.2030 ca         1 FBY       0.935900
      7 C8           4.1180     2.0390    -1.6480 ca         1 FBY       0.476200
      8 C9           5.4950     1.9560    -1.7300 ca         1 FBY      -0.256000
      9 C10          6.1840     1.1880    -0.7860 ca         1 FBY       0.664200
     10 C12          8.0640     1.0810    -2.2140 c3         1 FBY       0.107500
     11 N1           3.4770    -0.0000     1.2020 nu         1 FBY      -0.754300
     12 N2           3.4930     1.3880    -0.6780 nb         1 FBY      -0.783000
     13 C3          -0.6940     0.0070     1.2020 ca         1 FBY       0.004100
     14 N3           5.4910     0.5620     0.1580 nb         1 FBY      -0.811000
     15 C1           1.3830     0.0010     2.4050 ca         1 FBY      -0.197000
     16 C2          -0.0000     0.0080     2.4050 ca         1 FBY       0.155400
     17 F1          -0.6770     0.0000    -1.1690 f          1 FBY      -0.123400
     18 O1          -2.0550     0.0130     1.2030 oh         1 FBY      -0.494100
     19 F2          -0.6750     0.0090     3.5750 f          1 FBY      -0.123400
     20 N4           6.2080     2.6220    -2.7380 n          1 FBY      -0.366000
     21 N5           7.5630     1.0940    -0.8360 nh         1 FBY      -0.684300
     22 C15          5.2320     6.1890    -3.5720 c3         1 FBY      -0.083400
     23 C16          5.5100     7.5150    -2.8630 c3         1 FBY      -0.090100
     24 C17          8.0370    -0.0820    -0.0960 c3         1 FBY       0.158100
     25 C18          9.5890     1.2080    -2.2000 c3         1 FBY      -0.083100
     26 O2           8.1340     2.7930    -3.8420 o          1 FBY      -0.614500
     27 H1           6.9430     5.2030    -2.7230 hc         1 FBY       0.056200
     28 H2           5.4550     5.0150    -1.7850 hc         1 FBY       0.056200
     29 H3           1.9240    -0.0050    -0.9380 ha         1 FBY       0.165500
     30 H4           3.5580     2.6270    -2.3650 h4         1 FBY       0.042100
     31 H5           7.7830     0.1470    -2.6860 h1         1 FBY       0.060700
     32 H6           4.5240     3.5590    -3.5550 h1         1 FBY       0.062200
     33 H7           6.0120     3.7470    -4.4920 h1         1 FBY       0.062200
     34 H8           3.9770    -0.5120     1.9020 hn         1 FBY       0.471800
     35 H9           1.9250     0.0010     3.3430 ha         1 FBY       0.165500
     36 H10         -2.3730    -0.8750     1.2060 ho         1 FBY       0.419000
     37 H11          5.6510     6.2190    -4.5710 hc         1 FBY       0.041200
     38 H12          4.1620     6.0300    -3.6340 hc         1 FBY       0.041200
     39 H13          6.5800     7.6730    -2.8000 hc         1 FBY       0.035367
     40 H14          5.0900     7.4860    -1.8650 hc         1 FBY       0.035367
     41 H15          5.0580     8.3250    -3.4220 hc         1 FBY       0.035367
     42 H16          7.5750    -0.1030     0.8840 h1         1 FBY       0.052367
     43 H17          9.1140    -0.0290     0.0150 h1         1 FBY       0.052367
     44 H18          7.7740    -0.9810    -0.6390 h1         1 FBY       0.052367
     45 H19         10.0270     0.2710    -1.8750 hc         1 FBY       0.057033
     46 H20          9.8790     1.9970    -1.5170 hc         1 FBY       0.057033
     47 H21          9.9410     1.4450    -3.1960 hc         1 FBY       0.057033
     48 C13          5.5940     3.7180    -3.4930 c3         1 FBY       0.107000
@<TRIPOS>BOND
     1    19    16 1
     2    12     7 ar
     3    12     6 ar
     4    15    16 ar
     5    15     4 ar
     6    11     6 1
     7    11     4 1
     8     7     8 ar
     9    16    13 ar
    10     2    48 1
    11     2    22 1
    12    23    22 1
    13     6    14 ar
    14     4     3 ar
    15    48    20 1
    16     8    20 1
    17     8     9 ar
    18    13    18 1
    19    13     1 ar
    20    14     9 ar
    21    20     5 1
    22     3     1 ar
    23     9    21 1
    24     1    17 1
    25     5    26 2
    26     5    10 1
    27    21    10 1
    28    21    24 1
    29    10    25 1
    30     2    27 1
    31     2    28 1
    32     3    29 1
    33     7    30 1
    34    10    31 1
    35    48    32 1
    36    48    33 1
    37    11    34 1
    38    15    35 1
    39    18    36 1
    40    22    37 1
    41    22    38 1
    42    23    39 1
    43    23    40 1
    44    23    41 1
    45    24    42 1
    46    24    43 1
    47    24    44 1
    48    25    45 1
    49    25    46 1
    50    25    47 1
@<TRIPOS>SUBSTRUCTURE
     1 FBY         1 TEMP              0 ****  ****    0 ROOT
