@<TRIPOS>MOLECULE
FBY
   48    50     1     0     0
SMALL
bcc


@<TRIPOS>ATOM
      1 C4           0.0000     0.0000     0.0000 ca         1 FBY       0.118900
      2 C14          5.8730     5.0450    -2.7840 c3         1 FBY      -0.051400
      3 C5           1.3830     0.0000     0.0000 ca         1 FBY      -0.157000
      4 C6           2.0770     0.0000     1.2020 ca         1 FBY       0.041600
      5 C11          7.4760     2.2270    -2.9960 c          1 FBY       0.613500
      6 C7           4.1710     0.6660     0.2030 ca         1 FBY       0.705900
      7 C8           4.1180     2.0390    -1.6480 ca         1 FBY       0.469200
      8 C9           5.4950     1.9560    -1.7300 ca         1 FBY      -0.397000
      9 C10          6.1840     1.1880    -0.7860 ca         1 FBY       0.538200
     10 C12          8.0640     1.0810    -2.2140 c3         1 FBY       0.048500
     11 N1           3.4770    -0.0000     1.2020 nu         1 FBY      -0.287300
     12 N2           3.4930     1.3880    -0.6780 nb         1 FBY      -0.685000
     13 C3          -0.6940     0.0070     1.2020 ca         1 FBY       0.045100
     14 N3           5.4910     0.5620     0.1580 nb         1 FBY      -0.699000
     15 C1           1.3830     0.0010     2.4050 ca         1 FBY      -0.157000
     16 C2          -0.0000     0.0080     2.4050 ca         1 FBY       0.118900
     17 F1          -0.6770     0.0000    -1.1690 f          1 FBY      -0.116900
     18 O1          -2.0550     0.0130     1.2030 oh         1 FBY      -0.472100
     19 F2          -0.6750     0.0090     3.5750 f          1 FBY      -0.116900
     20 N4           6.2080     2.6220    -2.7380 n          1 FBY       0.035000
     21 N5           7.5630     1.0940    -0.8360 nh         1 FBY      -0.431300
     22 C15          5.2320     6.1890    -3.5720 c3         1 FBY      -0.022400
     23 C16          5.5100     7.5150    -2.8630 c3         1 FBY       0.006900
     24 C17          8.0370    -0.0820    -0.0960 c3         1 FBY       0.159100
     25 C18          9.5890     1.2080    -2.2000 c3         1 FBY       0.003900
     26 O2           8.1340     2.7930    -3.8420 o          1 FBY      -0.652500
     27 H1           6.9430     5.2030    -2.7230 hc         1 FBY       0.027200
     28 H2           5.4550     5.0150    -1.7850 hc         1 FBY       0.027200
     29 H3           1.9240    -0.0050    -0.9380 ha         1 FBY       0.140500
     30 H4           3.5580     2.6270    -2.3650 h4         1 FBY      -0.000900
     31 H5           7.7830     0.1470    -2.6860 h1         1 FBY       0.034700
     32 H6           4.5240     3.5590    -3.5550 h1         1 FBY       0.038700
     33 H7           6.0120     3.7470    -4.4920 h1         1 FBY       0.038700
     34 H8           3.9770    -0.5120     1.9020 hn         1 FBY       0.297800
     35 H9           1.9250     0.0010     3.3430 ha         1 FBY       0.140500
     36 H10         -2.3730    -0.8750     1.2060 ho         1 FBY       0.404000
     37 H11          5.6510     6.2190    -4.5710 hc         1 FBY       0.013200
     38 H12          4.1620     6.0300    -3.6340 hc         1 FBY       0.013200
     39 H13          6.5800     7.6730    -2.8000 hc         1 FBY       0.002367
     40 H14          5.0900     7.4860    -1.8650 hc         1 FBY       0.002367
     41 H15          5.0580     8.3250    -3.4220 hc         1 FBY       0.002367
     42 H16          7.5750    -0.1030     0.8840 h1         1 FBY       0.021033
     43 H17          9.1140    -0.0290     0.0150 h1         1 FBY       0.021033
     44 H18          7.7740    -0.9810    -0.6390 h1         1 FBY       0.021033
     45 H19         10.0270     0.2710    -1.8750 hc         1 FBY       0.022367
     46 H20          9.8790     1.9970    -1.5170 hc         1 FBY       0.022367
     47 H21          9.9410     1.4450    -3.1960 hc         1 FBY       0.022367
     48 C13          5.5940     3.7180    -3.4930 c3         1 FBY       0.029000
@<TRIPOS>BOND
     1     1     3 ar  
     2     1    13 ar  
     3     1    17 1   
     4     2    22 1   
     5     2    27 1   
     6     2    28 1   
     7     2    48 1   
     8     3     4 ar  
     9     3    29 1   
    10     4    11 1   
    11     4    15 ar  
    12     5    10 1   
    13     5    20 1   
    14     5    26 2   
    15     6    11 1   
    16     6    12 ar  
    17     6    14 ar  
    18     7     8 ar  
    19     7    12 ar  
    20     7    30 1   
    21     8     9 ar  
    22     8    20 1   
    23     9    14 ar  
    24     9    21 1   
    25    10    21 1   
    26    10    25 1   
    27    10    31 1   
    28    11    34 1   
    29    13    16 ar  
    30    13    18 1   
    31    15    16 ar  
    32    15    35 1   
    33    16    19 1   
    34    18    36 1   
    35    20    48 1   
    36    21    24 1   
    37    22    23 1   
    38    22    37 1   
    39    22    38 1   
    40    23    39 1   
    41    23    40 1   
    42    23    41 1   
    43    24    42 1   
    44    24    43 1   
    45    24    44 1   
    46    25    45 1   
    47    25    46 1   
    48    25    47 1   
    49    32    48 1   
    50    33    48 1   
@<TRIPOS>SUBSTRUCTURE
     1 FBY         1 TEMP              0 ****  ****    0 ROOT
