@<TRIPOS>MOLECULE
molecule
   23    23     1     0     0
SMALL
bcc


@<TRIPOS>ATOM
      1 CAA          0.0000     0.0000     0.0000 c3         1 FBZ      -0.067100
      2 OAB          1.0140     0.2440    -2.5880 o          1 FBZ      -0.854300
      3 OAC          1.9830     2.1860    -3.0040 o          1 FBZ      -0.854300
      4 CAD          2.9540    -0.0000     4.0280 ca         1 FBZ      -0.158000
      5 CAE          3.2880    -1.0360     3.1760 ca         1 FBZ      -0.138000
      6 CAF          2.1540     1.0330     3.5780 ca         1 FBZ      -0.138000
      7 CAG          2.8270    -1.0370     1.8730 ca         1 FBZ      -0.129000
      8 CAH          1.6940     1.0340     2.2740 ca         1 FBZ      -0.129000
      9 CAI          2.0390     1.2490    -0.7210 c3         1 FBZ      -0.176400
     10 CAJ          1.6400     1.1900    -2.1730 c          1 FBZ       0.891600
     11 CAK          2.0330     0.0000     1.4210 ca         1 FBZ      -0.047300
     12 CAL          1.5290     0.0000     0.0000 c3         1 FBZ      -0.019400
     13 HAA         -0.3610     0.9890    -0.2540 hc         1 FBZ       0.029700
     14 HAAA        -0.3610    -0.7150    -0.7300 hc         1 FBZ       0.029700
     15 HAAB        -0.3610    -0.2750     0.9840 hc         1 FBZ       0.029700
     16 HAD          3.3160    -0.0000     5.0490 ha         1 FBZ       0.109000
     17 HAE          3.9130    -1.8480     3.5290 ha         1 FBZ       0.112000
     18 HAF          1.8910     1.8440     4.2460 ha         1 FBZ       0.112000
     19 HAG          3.0910    -1.8480     1.2050 ha         1 FBZ       0.133000
     20 HAH          1.0690     1.8450     1.9210 ha         1 FBZ       0.133000
     21 HAI          3.1190     1.2950    -0.6450 hc         1 FBZ       0.032700
     22 HAIA         1.6080     2.1320    -0.2640 hc         1 FBZ       0.032700
     23 HAL          1.8900    -0.8840    -0.5110 hc         1 FBZ       0.065700
@<TRIPOS>BOND
     1     1    12 1
     2     1    13 1
     3     1    14 1
     4     1    15 1
     5     2    10 1
     6     3    10 1
     7     5     4 ar
     8     6     4 ar
     9     4    16 1
    10     7     5 ar
    11     5    17 1
    12     8     6 ar
    13     6    18 1
    14    11     7 ar
    15     7    19 1
    16    11     8 ar
    17     8    20 1
    18    10     9 1
    19     9    12 1
    20     9    21 1
    21     9    22 1
    22    12    11 1
    23    12    23 1
@<TRIPOS>SUBSTRUCTURE
     1 FBZ         1 TEMP              0 ****  ****    0 ROOT
