@<TRIPOS>MOLECULE
FBZ
   23    23     1     0     0
SMALL
bcc


@<TRIPOS>ATOM
      1 CAA        -0.0610    0.1170    0.0330 c3        1 FBZ     -0.076100
      2 OAB         1.7940   -0.1180   -2.7800 o         1 FBZ     -0.849800
      3 OAC         1.5410    2.0940   -2.9430 o         1 FBZ     -0.849800
      4 CAD         2.9800   -0.0140    4.0590 ca        1 FBZ     -0.159000
      5 CAE         3.1820   -1.1030    3.2120 ca        1 FBZ     -0.140000
      6 CAF         2.2840    1.1020    3.5940 ca        1 FBZ     -0.140000
      7 CAG         2.6890   -1.0790    1.9090 ca        1 FBZ     -0.133000
      8 CAH         1.7910    1.1270    2.2910 ca        1 FBZ     -0.133000
      9 CAI         2.0380    1.2040   -0.7690 c3        1 FBZ     -0.190400
     10 CAJ         1.7650    1.0420   -2.2770 c         1 FBZ      0.907600
     11 CAK         1.9850    0.0350    1.4330 ca        1 FBZ     -0.037300
     12 CAL         1.4550    0.0530    0.0340 c3        1 FBZ     -0.027400
     13 HAA        -0.4220    1.0380    0.5500 hc        1 FBZ      0.028700
     14 HAAA       -0.4150    0.1370   -1.0280 hc        1 FBZ      0.028700
     15 HAAB       -0.4950   -0.7730    0.5470 hc        1 FBZ      0.028700
     16 HAD         3.3690   -0.0330    5.0860 ha        1 FBZ      0.110000
     17 HAE         3.7340   -1.9830    3.5720 ha        1 FBZ      0.112500
     18 HAF         2.1270    1.9650    4.2550 ha        1 FBZ      0.112500
     19 HAG         2.8560   -1.9380    1.2420 ha        1 FBZ      0.135000
     20 HAH         1.2500    2.0100    1.9200 ha        1 FBZ      0.135000
     21 HAI         1.6130    2.1780   -0.4200 hc        1 FBZ      0.026200
     22 HAIA        3.1470    1.2380   -0.6280 hc        1 FBZ      0.026200
     23 HAL         1.7600   -0.8990   -0.4960 hc        1 FBZ      0.083700
@<TRIPOS>BOND
     1    1   12 1   
     2    1   13 1   
     3    1   14 1   
     4    1   15 1   
     5    2   10 1   
     6    3   10 1   
     7    4    5 ar  
     8    4    6 ar  
     9    4   16 1   
    10    5    7 ar  
    11    5   17 1   
    12    6    8 ar  
    13    6   18 1   
    14    7   11 ar  
    15    7   19 1   
    16    8   11 ar  
    17    8   20 1   
    18    9   10 1   
    19    9   12 1   
    20    9   21 1   
    21    9   22 1   
    22   11   12 1   
    23   12   23 1   
@<TRIPOS>SUBSTRUCTURE
     1 FBZ         1 TEMP              0 ****  ****    0 ROOT
