@<TRIPOS>MOLECULE
FC1
   36    37     1     0     0
SMALL
bcc


@<TRIPOS>ATOM
      1 O6          0.6180   -2.1220    2.9490 os        1 FC1     -0.301900
      2 S7          1.5750    0.4400   -0.6010 ss        1 FC1      0.042500
      3 C8          3.2770    1.4290    1.1130 ca        1 FC1     -0.117000
      4 C9          3.5090    0.7920    3.4350 ca        1 FC1     -0.123000
      5 C5          0.3550   -1.6730    0.6110 cc        1 FC1     -0.459200
      6 C1          1.9060   -0.3530    2.0240 ca        1 FC1     -0.101800
      7 C2          0.9310   -1.4060    1.8170 cd        1 FC1      0.260900
      8 C3          2.2710    0.4620    0.9360 ca        1 FC1     -0.016100
      9 C4          2.5270   -0.1720    3.2760 ca        1 FC1     -0.065000
     10 C10         0.4030   -0.8010   -0.5410 c         1 FC1      0.541900
     11 C17        -3.2500   -2.8160   -0.9710 c3        1 FC1      0.086600
     12 C18        -3.8260   -1.0130    0.5730 c3        1 FC1      0.086600
     13 N16        -2.8170   -2.0440    0.2250 n4        1 FC1     -0.690400
     14 C11        -0.4760   -3.0440    2.8590 c3        1 FC1      0.125400
     15 C12         3.8890    1.5920    2.3470 ca        1 FC1     -0.070000
     16 O13        -0.4550   -0.9490   -1.4430 o         1 FC1     -0.608100
     17 C14        -1.7990   -2.3480    2.5510 c3        1 FC1     -0.139400
     18 C15        -2.5610   -2.9700    1.3810 c3        1 FC1      0.112800
     19 H8          3.5740    2.0610    0.2590 ha        1 FC1      0.162000
     20 H9          3.9970    0.9300    4.4130 ha        1 FC1      0.159000
     21 H5         -0.1710   -2.6270    0.4480 ha        1 FC1      0.140000
     22 H4          2.2290   -0.8140    4.1210 ha        1 FC1      0.160000
     23 H171       -4.1800   -3.3960   -0.7320 hx        1 FC1      0.103367
     24 H172       -3.4500   -2.0990   -1.8130 hx        1 FC1      0.103367
     25 H173       -2.4260   -3.5150   -1.2770 hx        1 FC1      0.103367
     26 H181       -3.5040   -0.4730    1.5030 hx        1 FC1      0.103367
     27 H182       -4.8220   -1.5000    0.7500 hx        1 FC1      0.103367
     28 H183       -3.9130   -0.2810   -0.2750 hx        1 FC1      0.103367
     29 H111       -0.4900   -3.4790    3.8990 h1        1 FC1      0.085700
     30 H112       -0.2290   -3.8560    2.1270 h1        1 FC1      0.085700
     31 H12         4.6770    2.3530    2.4740 ha        1 FC1      0.159000
     32 H141       -2.4550   -2.4190    3.4620 hc        1 FC1      0.088700
     33 H142       -1.6020   -1.2530    2.3890 hc        1 FC1      0.088700
     34 H151       -3.5670   -3.3350    1.7370 hx        1 FC1      0.100200
     35 H152       -1.9960   -3.8590    0.9740 hx        1 FC1      0.100200
     36 H161       -1.9300   -1.5590   -0.0250 hn        1 FC1      0.487800
@<TRIPOS>BOND
     1    1    7 1   
     2    1   14 1   
     3    2    8 1   
     4    2   10 1   
     5    3    8 ar  
     6    3   15 ar  
     7    3   19 1   
     8    4    9 ar  
     9    4   15 ar  
    10    4   20 1   
    11    5    7 2   
    12    5   10 1   
    13    5   21 1   
    14    6    7 1   
    15    6    8 ar  
    16    6    9 ar  
    17    9   22 1   
    18   10   16 2   
    19   11   13 1   
    20   11   23 1   
    21   11   24 1   
    22   11   25 1   
    23   12   13 1   
    24   12   26 1   
    25   12   27 1   
    26   12   28 1   
    27   13   18 1   
    28   13   36 1   
    29   14   17 1   
    30   14   29 1   
    31   14   30 1   
    32   15   31 1   
    33   17   18 1   
    34   17   32 1   
    35   17   33 1   
    36   18   34 1   
    37   18   35 1   
@<TRIPOS>SUBSTRUCTURE
     1 FC1         1 TEMP              0 ****  ****    0 ROOT
