@<TRIPOS>MOLECULE
FC2
   21    22     1     0     0
SMALL
bcc


@<TRIPOS>ATOM
      1 OA         -0.0370    0.2570    0.1770 os        1 FC2     -0.329800
      2 CA          1.3410    0.2070    0.0720 cc        1 FC2      0.282200
      3 C           1.9760    0.5840   -1.2600 c         1 FC2      0.826100
      4 OXT         1.2330    1.0390   -2.1640 o         1 FC2     -0.795800
      5 CB          1.8910   -0.1940    1.2880 cd        1 FC2     -0.320300
      6 CG          0.8010   -0.4060    2.1930 cd        1 FC2     -0.197300
      7 CD         -0.3710   -0.1270    1.4950 cc        1 FC2      0.185200
      8 OB          3.2200    0.4080   -1.3380 o         1 FC2     -0.795800
      9 C1         -1.7740   -0.1050    1.8070 ca        1 FC2     -0.040500
     10 C2         -2.3350   -0.7080    2.9470 ca        1 FC2      0.002400
     11 C3         -3.7110   -0.6300    3.1990 ca        1 FC2     -0.122000
     12 C4         -4.5540    0.0390    2.3210 ca        1 FC2     -0.150000
     13 C5         -4.0080    0.6320    1.1760 ca        1 FC2      0.021400
     14 C6         -2.6440    0.5650    0.9170 ca        1 FC2     -0.111000
     15 CL1        -1.4010   -1.5780    4.0770 cl        1 FC2     -0.108400
     16 CL2        -5.0370    1.4490    0.0910 cl        1 FC2     -0.112400
     17 HB          2.9480   -0.3210    1.4980 ha        1 FC2      0.161000
     18 HG          0.8930   -0.7160    3.2300 ha        1 FC2      0.144000
     19 H3         -4.1300   -1.1050    4.0990 ha        1 FC2      0.136000
     20 H4         -5.6320    0.0980    2.5230 ha        1 FC2      0.137000
     21 H6         -2.2150    1.0290    0.0100 ha        1 FC2      0.187000
@<TRIPOS>BOND
     1    1    2 1
     2    1    7 1
     3    2    3 1
     4    2    5 2
     5    3    4 1
     6    3    8 1
     7    5    6 1
     8    5   17 1
     9    6    7 2
    10    6   18 1
    11    7    9 1
    12    9   10 ar
    13    9   14 ar
    14   10   11 ar
    15   10   15 1
    16   11   12 ar
    17   11   19 1
    18   12   13 ar
    19   12   20 1
    20   13   14 ar
    21   13   16 1
    22   14   21 1
@<TRIPOS>SUBSTRUCTURE
     1 FC2         1 TEMP              0 ****  ****    0 ROOT
