@<TRIPOS>MOLECULE
molecule
   49    51     1     0     0
SMALL
bcc


@<TRIPOS>ATOM
      1 C16          0.0000     0.0000     0.0000 ca         1 FC4      -0.072000
      2 C17          1.3790     0.0000     0.0000 ca         1 FC4      -0.150500
      3 C18          2.0750     0.0000     1.1980 ca         1 FC4       0.009400
      4 Cl           3.8110    -0.0000     1.1890 cl         1 FC4      -0.095400
      5 C19          1.3910     0.0000     2.4020 ca         1 FC4      -0.150500
      6 C20          0.0120     0.0000     2.4150 ca         1 FC4      -0.072000
      7 C15         -0.6940     0.0060     1.2120 ca         1 FC4      -0.047800
      8 C13         -2.1740     0.0070     1.2190 cc         1 FC4       0.300400
      9 N4          -2.8430    -0.8200     2.0250 nc         1 FC4      -0.702300
     10 C12         -2.8870     0.8820     0.3790 cc         1 FC4      -0.155900
     11 C14         -2.1980     1.7860    -0.4930 cg         1 FC4       0.222500
     12 N5          -1.6600     2.4940    -1.2010 n1         1 FC4      -0.337800
     13 C11         -4.3050     0.8490     0.4190 c          1 FC4       0.691700
     14 O4          -4.9650     1.5890    -0.2890 o          1 FC4      -0.592500
     15 N3          -4.9070    -0.0210     1.2580 ns         1 FC4      -0.426400
     16 C10         -4.1610    -0.8390     2.0500 cd         1 FC4       0.524800
     17 S2          -4.9790    -1.9570     3.1390 ss         1 FC4      -0.066300
     18 C9          -2.7760    -3.5450     2.8480 c3         1 FC4      -0.096100
     19 C8          -3.5480    -2.7540     3.9070 c3         1 FC4      -0.080600
     20 C7          -4.0160    -3.6910     4.9910 c          1 FC4       0.630100
     21 N2          -3.1930    -4.0050     6.0110 ns         1 FC4      -0.411100
     22 C6          -4.7860    -7.1960     7.2680 ca         1 FC4      -0.036000
     23 C5          -4.3980    -6.2290     6.3630 ca         1 FC4      -0.119000
     24 C4          -3.4640    -5.2690     6.7320 ca         1 FC4       0.163600
     25 O3          -5.1330    -4.1620     4.9450 o          1 FC4      -0.553100
     26 C3          -2.9240    -5.2860     8.0120 ca         1 FC4      -0.119000
     27 C2          -3.3170    -6.2570     8.9120 ca         1 FC4      -0.036000
     28 C1          -4.2480    -7.2100     8.5420 ca         1 FC4      -0.372500
     29 S1          -4.7510    -8.4430     9.6960 sy         1 FC4       1.245200
     30 O2          -4.4980    -7.9090    10.9890 o          1 FC4      -0.516300
     31 O1          -6.0350    -8.8850     9.2760 o          1 FC4      -0.516300
     32 N1          -3.7290    -9.7320     9.5140 nz         1 FC4      -0.815500
     33 H1          -0.3080    -0.1840    -1.0220 ha         1 FC4       0.152500
     34 H2           1.8250    -0.3250    -0.9320 ha         1 FC4       0.167500
     35 H3           2.3450     0.1180     2.9010 ha         1 FC4       0.167500
     36 H4          -0.3540    -0.0130     3.4350 ha         1 FC4       0.152500
     37 H5          -5.8580    -0.1940     0.9990 hn         1 FC4       0.356500
     38 H6          -1.8970    -4.0190     3.2690 hc         1 FC4       0.060700
     39 H7          -3.2890    -4.4650     2.5960 hc         1 FC4       0.060700
     40 H8          -2.3930    -2.8860     2.0780 hc         1 FC4       0.060700
     41 H9          -2.9020    -1.9990     4.3370 h1         1 FC4       0.110700
     42 H10         -2.2690    -3.8160     5.6770 hn         1 FC4       0.314500
     43 H11         -5.7540    -7.6640     7.1310 ha         1 FC4       0.153000
     44 H12         -4.9820    -6.4860     5.4880 ha         1 FC4       0.191500
     45 H13         -2.2750    -4.7810     8.7170 ha         1 FC4       0.191500
     46 H14         -2.8210    -6.7180     9.7570 ha         1 FC4       0.153000
     47 H15         -2.8040    -9.7600     9.1340 hn         1 FC4       0.486467
     48 H16         -3.8090   -10.3910    10.2630 hn         1 FC4       0.486467
     49 H131        -4.0910   -10.4910     8.9700 hn         1 FC4       0.486467
@<TRIPOS>BOND
     1     4     3 1
     2     5     3 ar
     3     5     6 ar
     4     3     2 ar
     5     6     7 ar
     6     2     1 ar
     7     7     1 ar
     8     7     8 1
     9    12    11 3
    10    18    19 1
    11    11    10 1
    12     8    10 2
    13     8     9 1
    14    10    13 1
    15     9    16 2
    16    19    20 1
    17    19    17 1
    18    13    14 2
    19    13    15 1
    20    20    25 2
    21    20    21 1
    22    16    15 1
    23    16    17 1
    24    21    24 1
    25    24    23 ar
    26    24    26 ar
    27    23    22 ar
    28    26    27 ar
    29    22    28 ar
    30    27    28 ar
    31    28    29 1
    32    32    29 1
    33    31    29 2
    34    29    30 2
    35     1    33 1
    36     2    34 1
    37     5    35 1
    38     6    36 1
    39    15    37 1
    40    18    38 1
    41    18    39 1
    42    18    40 1
    43    19    41 1
    44    21    42 1
    45    22    43 1
    46    23    44 1
    47    26    45 1
    48    27    46 1
    49    32    47 1
    50    32    48 1
    51    49    32 1
@<TRIPOS>SUBSTRUCTURE
     1 FC4         1 TEMP              0 ****  ****    0 ROOT
