@<TRIPOS>MOLECULE
FC5
   18    19     1     0     0
SMALL
bcc


@<TRIPOS>ATOM
      1 S1          0.1040    0.1360   -0.0740 s         1 FC5     -0.320400
      2 CAF         1.6540    0.0610    0.0250 c         1 FC5      0.405700
      3 CAI         2.4340   -0.0210    1.2430 cc        1 FC5     -0.221200
      4 CAH         3.7850   -0.0830    1.2300 cd        1 FC5     -0.031200
      5 CAN         4.4830   -0.0680   -0.0300 ca        1 FC5     -0.099800
      6 CAM         5.8820   -0.1290   -0.1330 ca        1 FC5     -0.171000
      7 OAK         2.3340    0.0750   -1.1850 os        1 FC5     -0.262200
      8 CAO         3.7140    0.0120   -1.2040 ca        1 FC5      0.094100
      9 CAL         4.3170    0.0320   -2.4790 ca        1 FC5     -0.110000
     10 CAG         5.6950   -0.0280   -2.5720 ca        1 FC5     -0.109000
     11 CAJ         6.4740   -0.1090   -1.3940 ca        1 FC5      0.106100
     12 OAD         7.8360   -0.1650   -1.5820 oh        1 FC5     -0.492100
     13 HAI         1.8600   -0.0300    2.1830 ha        1 FC5      0.170000
     14 HAH0        4.3760   -0.1450    2.1570 ha        1 FC5      0.149000
     15 HAM         6.4940   -0.1920    0.7780 ha        1 FC5      0.143000
     16 HAL         3.6830    0.0950   -3.3760 ha        1 FC5      0.164000
     17 HAG         6.2020   -0.0150   -3.5490 ha        1 FC5      0.162000
     18 HOAD        8.2570   -0.2170   -0.7120 ho        1 FC5      0.422000
@<TRIPOS>BOND
     1    1    2 2   
     2    2    3 1   
     3    2    7 1   
     4    3    4 2   
     5    3   13 1   
     6    4    5 1   
     7    4   14 1   
     8    5    6 ar  
     9    5    8 ar  
    10    6   11 ar  
    11    6   15 1   
    12    7    8 1   
    13    8    9 ar  
    14    9   10 ar  
    15    9   16 1   
    16   10   11 ar  
    17   10   17 1   
    18   11   12 1   
    19   12   18 1   
@<TRIPOS>SUBSTRUCTURE
     1 FC5         1 TEMP              0 ****  ****    0 ROOT
