@<TRIPOS>MOLECULE
molecule
   18    19     1     0     0
SMALL
bcc


@<TRIPOS>ATOM
      1 S1           0.0000     0.0000     0.0000 s          1 FC5      -0.475400
      2 CAF          1.7120     0.0000     0.0000 cs         1 FC5       0.483700
      3 CAI          2.3980     0.0000     1.2310 cc         1 FC5      -0.216200
      4 CAH          3.7560     0.0000     1.2470 cd         1 FC5      -0.028200
      5 CAN          4.4640     0.0000    -0.0370 ca         1 FC5      -0.134800
      6 CAM          5.8610     0.0020    -0.0890 ca         1 FC5      -0.105000
      7 OAK          2.3660    -0.0050    -1.1740 os         1 FC5      -0.219200
      8 CAO          3.7170     0.0010    -1.2290 ca         1 FC5       0.122100
      9 CAL          4.3750     0.0010    -2.4500 ca         1 FC5      -0.124000
     10 CAG          5.7540     0.0010    -2.4920 ca         1 FC5      -0.104000
     11 CAJ          6.4980     0.0020    -1.3150 ca         1 FC5       0.089100
     12 OAD          7.8560     0.0030    -1.3730 oh         1 FC5      -0.515100
     13 HAI          1.8460     0.0830     2.1590 ha         1 FC5       0.181000
     14 HAH0         4.3010     0.0000     2.1830 ha         1 FC5       0.154000
     15 HAM          6.4400     0.0020     0.8270 ha         1 FC5       0.152000
     16 HAL          3.8060     0.0000    -3.3720 ha         1 FC5       0.161000
     17 HAG          6.2620     0.0010    -3.4480 ha         1 FC5       0.155000
     18 HOAD         8.1730    -0.8840    -1.3410 ho         1 FC5       0.423000
@<TRIPOS>BOND
     1    12    11 1
     2    11     6 ar
     3    11    10 ar
     4     6     5 ar
     5    10     9 ar
     6     5     4 1
     7     5     8 ar
     8     9     8 ar
     9     4     3 2
    10     8     7 1
    11     3     2 1
    12     7     2 1
    13     2     1 2
    14     3    13 1
    15     4    14 1
    16     6    15 1
    17     9    16 1
    18    10    17 1
    19    12    18 1
@<TRIPOS>SUBSTRUCTURE
     1 FC5         1 TEMP              0 ****  ****    0 ROOT
