@<TRIPOS>MOLECULE
FC8
   52    55     1     0     0
SMALL
bcc


@<TRIPOS>ATOM
      1 C4           0.0000     0.0000     0.0000 ca         1 FC8      -0.258200
      2 C14          4.0540    -1.4380     3.3470 c3         1 FC8      -0.033400
      3 C5           1.4060     0.0000     0.0000 ca         1 FC8       0.622200
      4 C6           3.5060     0.1200    -1.1750 ca         1 FC8       0.000600
      5 C11          4.2690    -0.5200    -2.1430 ca         1 FC8      -0.117000
      6 C7           4.1300     0.8830    -0.1960 ca         1 FC8      -0.125000
      7 C8           5.5050     1.0030    -0.1870 ca         1 FC8      -0.088000
      8 C9           6.2630     0.3650    -1.1510 ca         1 FC8      -0.105000
      9 C10          5.6460    -0.3960    -2.1290 ca         1 FC8      -0.014600
     10 C12          1.3710    -0.0010     2.3130 ca         1 FC8       0.751900
     11 C13          3.5460    -0.0010     3.4810 c3         1 FC8       0.143500
     12 N1          -2.0070    -0.0070     0.9440 na         1 FC8       0.221000
     13 N2          -0.9510    -0.0050    -0.9660 nc         1 FC8      -0.479100
     14 C3          -2.1290    -0.0080    -0.4140 cd         1 FC8       0.252700
     15 N3           2.1130     0.0020    -1.1900 nu         1 FC8      -0.253300
     16 C1          -3.4100     1.4260     2.3450 c3         1 FC8      -0.012100
     17 C2          -3.1050    -0.0100     1.9140 c3         1 FC8      -0.036700
     18 Cl1          6.6010    -1.1960    -3.3370 cl         1 FC8       0.006600
     19 N4           2.0410     0.0000     1.1670 nb         1 FC8      -0.788000
     20 N5           2.0800    -0.0020     3.5020 nu         1 FC8      -0.564900
     21 C15          3.5610    -2.2660     4.5360 c3         1 FC8      -0.036400
     22 C16          4.0890    -1.6570     5.8360 c3         1 FC8      -0.012400
     23 C17          3.5810    -0.2210     5.9700 c3         1 FC8      -0.034400
     24 C18          4.0740     0.6070     4.7820 c3         1 FC8      -0.093500
     25 N6           3.5860     1.9870     4.9100 nz         1 FC8       0.071400
     26 N7           0.0490    -0.0020     2.3580 nb         1 FC8      -0.714000
     27 C19         -0.6660    -0.0010     1.2360 ca         1 FC8       0.291800
     28 H1           3.6770    -1.8690     2.4270 hc         1 FC8       0.047700
     29 H2           5.1370    -1.4370     3.3340 hc         1 FC8       0.047700
     30 H3           3.7830    -1.0700    -2.9400 ha         1 FC8       0.127000
     31 H4           3.5330     1.4490     0.5100 ha         1 FC8       0.115000
     32 H5           5.9900     1.6160     0.5630 ha         1 FC8       0.092000
     33 H6           7.3420     0.4610    -1.1410 ha         1 FC8       0.120000
     34 H7           3.8990     0.5840     2.6410 h1         1 FC8       0.070700
     35 H8          -3.0680    -0.0130    -0.9540 h5         1 FC8       0.042800
     36 H9           1.6260    -0.0630    -2.0610 hn         1 FC8       0.312800
     37 H10         -3.1120     2.1100     1.5600 hc         1 FC8       0.016033
     38 H11         -4.4720     1.5300     2.5310 hc         1 FC8       0.016033
     39 H12         -2.8610     1.6550     3.2510 hc         1 FC8       0.016033
     40 H13         -3.9870    -0.4450     1.4590 h1         1 FC8       0.042200
     41 H14         -2.8210    -0.5950     2.7800 h1         1 FC8       0.042200
     42 H15          1.5920     0.0390     4.3750 hn         1 FC8       0.302800
     43 H16          3.9240    -3.2830     4.4410 hc         1 FC8       0.038700
     44 H17          2.4780    -2.2640     4.5510 hc         1 FC8       0.038700
     45 H18          5.1720    -1.6560     5.8190 hc         1 FC8       0.036700
     46 H19          3.7370    -2.2430     6.6770 hc         1 FC8       0.036700
     47 H20          2.4980    -0.2220     5.9830 hc         1 FC8       0.033700
     48 H21          3.9580     0.2100     6.8900 hc         1 FC8       0.033700
     49 H22          5.1570     0.6030     4.7660 hx         1 FC8       0.099700
     50 H23          4.1060     2.4600     5.6220 hn         1 FC8       0.225467
     51 H24          3.7020     2.4640     4.0380 hn         1 FC8       0.225467
     52 H63          2.6160     1.9760     5.1580 hn         1 FC8       0.225467
@<TRIPOS>BOND
     1     1     3 ar  
     2     1    13 1   
     3     1    27 ar  
     4     2    11 1   
     5     2    21 1   
     6     2    28 1   
     7     2    29 1   
     8     3    15 1   
     9     3    19 ar  
    10     4     5 ar  
    11     4     6 ar  
    12     4    15 1   
    13     5     9 ar  
    14     5    30 1   
    15     6     7 ar  
    16     6    31 1   
    17     7     8 ar  
    18     7    32 1   
    19     8     9 ar  
    20     8    33 1   
    21     9    18 1   
    22    10    19 ar  
    23    10    20 1   
    24    10    26 ar  
    25    11    20 1   
    26    11    24 1   
    27    11    34 1   
    28    12    14 1   
    29    12    17 1   
    30    12    27 1   
    31    13    14 2   
    32    14    35 1   
    33    15    36 1   
    34    16    17 1   
    35    16    37 1   
    36    16    38 1   
    37    16    39 1   
    38    17    40 1   
    39    17    41 1   
    40    20    42 1   
    41    21    22 1   
    42    21    43 1   
    43    21    44 1   
    44    22    23 1   
    45    22    45 1   
    46    22    46 1   
    47    23    24 1   
    48    23    47 1   
    49    23    48 1   
    50    24    25 1   
    51    24    49 1   
    52    25    50 1   
    53    25    51 1   
    54    25    52 1   
    55    26    27 ar  
@<TRIPOS>SUBSTRUCTURE
     1 FC8         1 TEMP              0 ****  ****    0 ROOT
