@<TRIPOS>MOLECULE
molecule
   67    72     1     0     0
SMALL
bcc


@<TRIPOS>ATOM
      1 C9           0.0000     0.0000     0.0000 ca         1 FC9      -0.142500
      2 C10          1.3880     0.0000     0.0000 ca         1 FC9       0.116800
      3 C11          2.0790     0.0000     1.2030 ca         1 FC9      -0.142500
      4 C12          1.3850     0.0010     2.3970 ca         1 FC9      -0.012000
      5 C8          -0.6890    -0.0000     1.1970 ca         1 FC9      -0.012000
      6 C7           0.0020    -0.0000     2.3940 ca         1 FC9      -0.346500
      7 S           -0.8810    -0.0000     3.9190 sy         1 FC9       1.177200
      8 O1          -2.1630    -0.5450     3.6400 o          1 FC9      -0.538300
      9 O2           0.0000    -0.5440     4.8930 o          1 FC9      -0.538300
     10 N3          -1.1270     1.5820     4.3430 nz         1 FC9      -0.796500
     11 N1           2.0910    -0.0010    -1.2140 na         1 FC9       0.173300
     12 N2           1.5670    -0.0000    -2.3900 nc         1 FC9      -0.190800
     13 N4           2.4890    -0.0010    -3.2870 nc         1 FC9      -0.306000
     14 C4           3.6840    -0.0000    -2.6860 cc         1 FC9       0.281600
     15 C5           3.4450     0.0050    -1.3530 cd         1 FC9      -0.268600
     16 C1           5.0320    -0.0010    -3.3590 c3         1 FC9       0.108700
     17 N5           5.4150    -1.3770    -3.6860 ns         1 FC9      -0.537900
     18 C6           6.5910    -1.6220    -4.2970 cs         1 FC9       0.602400
     19 S7           7.6360    -0.3260    -4.6930 s          1 FC9      -0.694400
     20 N8           6.9430    -2.8880    -4.5970 ns         1 FC9      -0.394100
     21 C13          8.1160    -3.1350    -5.3070 ca         1 FC9      -0.006400
     22 C14          9.2940    -2.4870    -4.9470 ca         1 FC9      -0.098000
     23 C15         10.4600    -2.7230    -5.6400 ca         1 FC9      -0.130000
     24 C16         10.4660    -3.6180    -6.7140 ca         1 FC9      -0.054000
     25 C17          9.2730    -4.2770    -7.0820 ca         1 FC9      -0.084600
     26 C18          8.1060    -4.0330    -6.3690 ca         1 FC9      -0.092000
     27 C3          11.7100    -3.8710    -7.4580 cc         1 FC9       0.154000
     28 C19         12.4330    -5.0740    -7.2880 cd         1 FC9      -0.178100
     29 C20         13.6250    -5.2780    -8.0230 cd         1 FC9       0.353700
     30 O21         14.0820    -4.3430    -8.8820 os         1 FC9      -0.376800
     31 C22         13.4400    -3.1750    -9.0890 ca         1 FC9       0.402000
     32 C23         12.2420    -2.8880    -8.4060 ca         1 FC9      -0.193300
     33 C24         11.5770    -1.6740    -8.6310 ca         1 FC9      -0.044000
     34 C25         12.0900    -0.7750    -9.5180 ca         1 FC9      -0.189000
     35 C26         13.2730    -1.0560   -10.2020 ca         1 FC9       0.149100
     36 C27         13.9510    -2.2440    -9.9830 ca         1 FC9      -0.256300
     37 O3          13.7720    -0.1510   -11.0820 oh         1 FC9      -0.525100
     38 C21         14.3280    -6.4550    -7.8550 cc         1 FC9      -0.321200
     39 C28         13.8580    -7.4280    -6.9650 c          1 FC9       0.583500
     40 C29         12.6690    -7.2140    -6.2380 cc         1 FC9      -0.251200
     41 C30         11.9710    -6.0600    -6.3960 cd         1 FC9      -0.025200
     42 O4          14.4820    -8.4710    -6.8170 o          1 FC9      -0.597100
     43 C2           9.2680    -5.2250    -8.2160 c          1 FC9       0.872200
     44 O5          10.2910    -5.4390    -8.8340 o          1 FC9      -0.771300
     45 O6           8.1270    -5.8520    -8.5630 o          1 FC9      -0.771300
     46 H1          -0.5420     0.0470    -0.9370 ha         1 FC9       0.179500
     47 H2           3.1620     0.0390     1.2060 ha         1 FC9       0.179500
     48 H3           1.9240    -0.0090     3.3370 ha         1 FC9       0.162000
     49 H4          -1.7720    -0.0110     1.1980 ha         1 FC9       0.162000
     50 H5          -0.2440     2.0400     4.4490 hn         1 FC9       0.482467
     51 H6          -1.6290     1.6210     5.2080 hn         1 FC9       0.482467
     52 H7           4.1820     0.0080    -0.5590 h4         1 FC9       0.195000
     53 H8           5.7690     0.4300    -2.6920 h1         1 FC9       0.092200
     54 H9           4.9820     0.5860    -4.2680 h1         1 FC9       0.092200
     55 H10          4.7980    -2.1330    -3.4660 hn         1 FC9       0.311500
     56 H11          6.3820    -3.6530    -4.2760 hn         1 FC9       0.318500
     57 H12          9.2930    -1.7920    -4.1150 ha         1 FC9       0.158000
     58 H13         11.3730    -2.2140    -5.3540 ha         1 FC9       0.134000
     59 H14          7.1870    -4.5350    -6.6460 ha         1 FC9       0.165000
     60 H15         10.6580    -1.4520    -8.1020 ha         1 FC9       0.159000
     61 H16         11.5710     0.1580    -9.7000 ha         1 FC9       0.142000
     62 H17         14.8690    -2.4530   -10.5190 ha         1 FC9       0.155000
     63 H19         15.2420    -6.6240    -8.4110 ha         1 FC9       0.153000
     64 H20         12.3120    -7.9710    -5.5510 ha         1 FC9       0.142000
     65 H21         11.0580    -5.8990    -5.8370 ha         1 FC9       0.140000
     66 H18         13.4550    -0.3480   -11.9480 ho         1 FC9       0.424000
     67 H33         -1.6610     2.0390     3.6300 hn         1 FC9       0.482467
@<TRIPOS>BOND
     1    16    17 1
     2    16    14 1
     3    17    18 1
     4    13    14 1
     5    13    12 2
     6    14    15 2
     7    12    11 1
     8    18    20 1
     9    18    19 2
    10    20    21 1
    11    15    11 1
    12    11     2 1
    13    21    26 ar
    14    21    22 ar
    15     2     1 ar
    16     2     3 ar
    17    40    41 2
    18    40    39 1
    19    26    25 ar
    20    22    23 ar
    21     1     5 ar
    22     3     4 ar
    23    42    39 2
    24    41    28 1
    25    39    38 1
    26     5     6 ar
    27    25    43 1
    28    25    24 ar
    29     4     6 ar
    30    23    24 ar
    31    44    43 1
    32    43    45 1
    33     6     7 1
    34    24    27 1
    35    10     7 1
    36    28    27 2
    37    28    29 1
    38     8     7 2
    39    38    29 2
    40     7     9 2
    41    27    32 1
    42    29    30 1
    43    32    33 ar
    44    32    31 ar
    45    30    31 1
    46    33    34 ar
    47    31    36 ar
    48    34    35 ar
    49    36    35 ar
    50    35    37 1
    51     1    46 1
    52     3    47 1
    53     4    48 1
    54     5    49 1
    55    10    50 1
    56    10    51 1
    57    15    52 1
    58    16    53 1
    59    16    54 1
    60    17    55 1
    61    20    56 1
    62    22    57 1
    63    23    58 1
    64    26    59 1
    65    33    60 1
    66    34    61 1
    67    36    62 1
    68    38    63 1
    69    40    64 1
    70    41    65 1
    71    37    66 1
    72    67    10 1
@<TRIPOS>SUBSTRUCTURE
     1 FC9         1 TEMP              0 ****  ****    0 ROOT
