@<TRIPOS>MOLECULE
FCD
   21    22     1     0     0
SMALL
bcc


@<TRIPOS>ATOM
      1 OA          0.0640   -0.4920    0.1530 os        1 FCD     -0.332800
      2 CA          1.4340   -0.3100    0.0780 cc        1 FCD      0.277200
      3 C           2.1920   -1.0290   -1.0280 c         1 FCD      0.827100
      4 OXT         3.4140   -0.7420   -1.1280 o         1 FCD     -0.798800
      5 CB          1.8510    0.5360    1.1020 cd        1 FCD     -0.319300
      6 CG          0.6830    0.8990    1.8500 cd        1 FCD     -0.205300
      7 CD         -0.4000    0.2620    1.2530 cc        1 FCD      0.194200
      8 OB          1.5630   -1.8460   -1.7460 o         1 FCD     -0.798800
      9 C1         -1.8120    0.1690    1.5090 ca        1 FCD     -0.053500
     10 C2         -2.5450   -0.8460    0.8520 ca        1 FCD     -0.115000
     11 C3         -3.9080   -1.0020    1.0600 ca        1 FCD     -0.132000
     12 C4         -4.5870   -0.1500    1.9350 ca        1 FCD     -0.152000
     13 C5         -3.8910    0.8600    2.5880 ca        1 FCD     -0.132000
     14 C6         -2.5160    1.0240    2.3760 ca        1 FCD      0.007400
     15 CL2        -1.7620    2.3090    3.2060 cl        1 FCD     -0.116400
     16 HB          2.8710    0.8570    1.2890 ha        1 FCD      0.160000
     17 HG          0.6690    1.5460    2.7220 ha        1 FCD      0.143000
     18 H2         -2.0070   -1.5150    0.1580 ha        1 FCD      0.172000
     19 H3         -4.4530   -1.7990    0.5360 ha        1 FCD      0.126000
     20 H4         -5.6650   -0.2740    2.1040 ha        1 FCD      0.120000
     21 H5         -4.4220    1.5380    3.2730 ha        1 FCD      0.130000
@<TRIPOS>BOND
     1    1    2 1   
     2    1    7 1   
     3    2    3 1   
     4    2    5 2   
     5    3    4 1   
     6    3    8 1   
     7    5    6 1   
     8    5   16 1   
     9    6    7 2   
    10    6   17 1   
    11    7    9 1   
    12    9   10 ar  
    13    9   14 ar  
    14   10   11 ar  
    15   10   18 1   
    16   11   12 ar  
    17   11   19 1   
    18   12   13 ar  
    19   12   20 1   
    20   13   14 ar  
    21   13   21 1   
    22   14   15 1   
@<TRIPOS>SUBSTRUCTURE
     1 FCD         1 TEMP              0 ****  ****    0 ROOT
