@<TRIPOS>MOLECULE
FCF
   38    41     1     0     0
SMALL
bcc


@<TRIPOS>ATOM
      1 O40          0.0000     0.0000     0.0000 o          1 FCF      -0.608500
      2 C38          1.3460     0.0000     0.0000 c2         1 FCF       0.421000
      3 O39          1.9530     0.0000     1.0520 o          1 FCF      -0.608500
      4 C5           2.0860     0.0010    -1.2790 c2         1 FCF      -0.119000
      5 C6           1.3890     0.0070    -2.4900 c2         1 FCF      -0.001000
      6 C1           2.0770     0.0080    -3.6870 c2         1 FCF      -0.167000
      7 C4           3.4800     0.0010    -1.2810 c2         1 FCF       0.042000
      8 C3           4.1680     0.0020    -2.4930 c3         1 FCF      -0.195000
      9 C2           3.4580     0.0020    -3.6970 c2         1 FCF      -0.104000
     10 C17          5.6450     0.0010    -2.5040 c2         1 FCF      -0.387000
     11 N18          6.2820     0.0020    -3.6290 n2         1 FCF      -0.003000
     12 O21          7.6990     0.0020    -3.6400 os         1 FCF      -0.196000
     13 C22          8.2700     0.0030    -4.9500 c3         1 FCF       0.063000
     14 C23          9.7950     0.0030    -4.8420 c3         1 FCF       0.048000
     15 O27         10.2300    -1.2180    -4.2410 os         1 FCF      -0.136000
     16 N31         11.6350    -1.3200    -4.0940 n2         1 FCF       0.091000
     17 C30         12.1540    -2.3790    -3.5620 c2         1 FCF      -0.298000
     18 C16         13.6150    -2.4850    -3.4090 c3         1 FCF      -0.162000
     19 N11         14.4350    -1.4550    -3.8240 ns         1 FCF       0.129000
     20 C15         14.1710    -3.5990    -2.8490 c2         1 FCF      -0.190000
     21 C14         15.5760    -3.6710    -2.7160 c2         1 FCF       0.239000
     22 O33         16.0960    -4.6540    -2.2200 o          1 FCF      -0.374000
     23 N13         16.3360    -2.6410    -3.1400 ns         1 FCF       0.093000
     24 C12         15.7700    -1.5500    -3.6850 c2         1 FCF       0.169000
     25 O34         16.4760    -0.6320    -4.0570 o          1 FCF      -0.429000
     26 H6           0.3060     0.0110    -2.4900 ha         1 FCF       0.131000
     27 H1           1.5320     0.0130    -4.6230 ha         1 FCF       0.093000
     28 H4           4.0230    -0.1010    -0.3500 ha         1 FCF       0.141000
     29 H2           3.9920     0.0030    -4.6390 ha         1 FCF       0.105000
     30 H17          5.0310    -0.8730    -2.6840 DU         1 FCF       0.346000
     31 H22          7.9460    -0.8800    -5.4870 h1         1 FCF       0.044500
     32 H22A         7.9460     0.8890    -5.4840 h1         1 FCF       0.044500
     33 H23         10.1140     0.8400    -4.2320 h1         1 FCF       0.048500
     34 H23A        10.2270     0.0930    -5.8320 h1         1 FCF       0.048500
     35 H30         12.8370    -2.6250    -4.3660 DU         1 FCF       0.272000
     36 HN13        17.3320    -2.6890    -3.0470 hn         1 FCF       0.119000
     37 H13         14.0340    -0.6340    -4.2320 hn         1 FCF       0.121000
     38 H15         13.5420    -4.3270    -2.3520 ha         1 FCF       0.168000
@<TRIPOS>BOND
     1     1     2 1   
     2     2     3 1   
     3     2     4 1   
     4     4     5 1   
     5     4     7 1   
     6     5     6 1   
     7     5    26 1   
     8     6     9 1   
     9     6    27 1   
    10     7     8 1   
    11     7    28 1   
    12     8     9 1   
    13     8    10 1   
    14     8    30 1   
    15     9    29 1   
    16    10    11 1   
    17    10    30 1   
    18    11    12 1   
    19    12    13 1   
    20    13    14 1   
    21    13    31 1   
    22    13    32 1   
    23    14    15 1   
    24    14    33 1   
    25    14    34 1   
    26    15    16 1   
    27    16    17 1   
    28    17    18 1   
    29    17    35 1   
    30    18    19 1   
    31    18    20 1   
    32    18    35 1   
    33    19    24 1   
    34    19    37 1   
    35    20    21 1   
    36    20    38 1   
    37    21    22 1   
    38    21    23 1   
    39    23    24 1   
    40    23    36 1   
    41    24    25 1   
@<TRIPOS>SUBSTRUCTURE
     1 FCF         1 TEMP              0 ****  ****    0 ROOT
