@<TRIPOS>MOLECULE
molecule
   38    39     1     0     0
SMALL
bcc


@<TRIPOS>ATOM
      1 O40          0.0000     0.0000     0.0000 o          1 FCF      -0.833300
      2 C38          1.3460     0.0000     0.0000 c          1 FCF       0.883200
      3 O39          1.9530     0.0000     1.0520 o          1 FCF      -0.833300
      4 C5           2.0860     0.0010    -1.2790 ca         1 FCF      -0.113600
      5 C6           1.3890     0.0070    -2.4900 ca         1 FCF      -0.070000
      6 C1           2.0770     0.0080    -3.6870 ca         1 FCF      -0.176000
      7 C4           3.4800     0.0010    -1.2810 ca         1 FCF      -0.072000
      8 C3           4.1680     0.0020    -2.4930 ca         1 FCF      -0.188900
      9 C2           3.4580     0.0020    -3.6970 ca         1 FCF      -0.109000
     10 C17          5.6450     0.0010    -2.5040 ce         1 FCF       0.475800
     11 N18          6.2820     0.0020    -3.6290 n2         1 FCF      -0.484200
     12 O21          7.6990     0.0020    -3.6400 os         1 FCF      -0.223300
     13 C22          8.2700     0.0030    -4.9500 c3         1 FCF       0.161400
     14 C23          9.7950     0.0030    -4.8420 c3         1 FCF       0.140400
     15 O27         10.2300    -1.2180    -4.2410 os         1 FCF      -0.171300
     16 N31         11.6350    -1.3200    -4.0940 n2         1 FCF      -0.430200
     17 C30         12.1540    -2.3790    -3.5620 ce         1 FCF       0.403500
     18 C16         13.6150    -2.4850    -3.4090 cc         1 FCF       0.049000
     19 N11         14.4350    -1.4550    -3.8240 ns         1 FCF      -0.447100
     20 C15         14.1710    -3.5990    -2.8490 cd         1 FCF      -0.306200
     21 C14         15.5760    -3.6710    -2.7160 c          1 FCF       0.706700
     22 O33         16.0960    -4.6540    -2.2200 o          1 FCF      -0.620500
     23 N13         16.3360    -2.6410    -3.1400 ns         1 FCF      -0.563500
     24 C12         15.7700    -1.5500    -3.6850 c          1 FCF       0.809500
     25 O34         16.4760    -0.6320    -4.0570 o          1 FCF      -0.654500
     26 H6           0.3060     0.0110    -2.4900 ha         1 FCF       0.157000
     27 H1           1.5320     0.0130    -4.6230 ha         1 FCF       0.110000
     28 H4           4.0230    -0.1020    -0.3500 ha         1 FCF       0.149000
     29 H2           3.9920    -0.0020    -4.6390 ha         1 FCF       0.123000
     30 H17          6.1940    -0.0000    -1.5700 h4         1 FCF      -0.004200
     31 H22          7.9460    -0.8800    -5.4870 h1         1 FCF       0.046200
     32 H22A         7.9460     0.8890    -5.4840 h1         1 FCF       0.046200
     33 H23         10.2270     0.0930    -5.8320 h1         1 FCF       0.046200
     34 H23A        10.1140     0.8400    -4.2320 h1         1 FCF       0.046200
     35 H30         11.5150    -3.1880    -3.2300 h4         1 FCF       0.031800
     36 HN13        17.3320    -2.6890    -3.0470 hn         1 FCF       0.362500
     37 H13         14.0340    -0.6340    -4.2320 hn         1 FCF       0.374500
     38 H15         13.5660    -4.4820    -2.6830 ha         1 FCF       0.182000
@<TRIPOS>BOND
     1     2     1 1
     2     3     2 1
     3     4     2 1
     4     4     7 ar
     5     5     4 ar
     6     5    26 1
     7     6     5 ar
     8     6     9 ar
     9     6    27 1
    10     7    28 1
    11     8     7 ar
    12     8    10 1
    13     9     8 ar
    14     9    29 1
    15    10    30 1
    16    11    10 2
    17    11    12 1
    18    13    12 1
    19    13    14 1
    20    13    31 1
    21    13    32 1
    22    14    15 1
    23    14    33 1
    24    14    34 1
    25    15    16 1
    26    16    17 2
    27    17    18 1
    28    17    35 1
    29    18    20 2
    30    19    18 1
    31    19    24 1
    32    20    21 1
    33    21    22 2
    34    23    21 1
    35    23    36 1
    36    24    23 1
    37    25    24 2
    38    19    37 1
    39    20    38 1
@<TRIPOS>SUBSTRUCTURE
     1 FCF         1 TEMP              0 ****  ****    0 ROOT
