@<TRIPOS>MOLECULE
FCH
   49    50     1     0     0
SMALL
bcc


@<TRIPOS>ATOM
      1 C11          0.0000     0.0000     0.0000 c3         1 FCH      -0.022400
      2 N11          4.0600     1.2550     0.8580 n7         1 FCH      -0.581200
      3 C12          3.5700    -0.0000     1.4420 c3         1 FCH       0.144800
      4 C13          2.0400     0.0000     1.4420 c3         1 FCH      -0.050700
      5 C14          1.5300    -1.2500     2.1640 c3         1 FCH      -0.021400
      6 C15          1.5300     0.0000     0.0000 c3         1 FCH      -0.021400
      7 C16          5.5280     1.2910     0.8420 c3         1 FCH       0.113800
      8 C17          5.9990     2.6100     0.2270 c3         1 FCH       0.180100
      9 C18         -0.5100    -1.2500     0.7210 c3         1 FCH      -0.025400
     10 O18          5.6040     3.6960     1.0680 oh         1 FCH      -0.554800
     11 C19          7.5230     2.5970     0.0950 c3         1 FCH      -0.098500
     12 C20          0.0000    -1.2500     2.1640 c3         1 FCH      -0.022400
     13 N20          7.9300     1.4810    -0.7710 nz         1 FCH       0.040400
     14 C32          7.9950     3.9160    -0.5200 c3         1 FCH       0.051900
     15 C33         10.2250     3.3090    -1.7400 ca         1 FCH      -0.103500
     16 C34         11.6070     3.3230    -1.7680 ca         1 FCH      -0.072000
     17 C35         12.3140     3.8410    -0.6990 ca         1 FCH      -0.064000
     18 C36         11.6410     4.3450     0.3970 ca         1 FCH      -0.072000
     19 C37         10.2580     4.3310     0.4260 ca         1 FCH      -0.103500
     20 C38          9.5500     3.8140    -0.6430 ca         1 FCH      -0.188300
     21 H11         -0.3600     0.8840     0.5130 hc         1 FCH       0.017700
     22 H11A        -0.3600    -0.0020    -1.0220 hc         1 FCH       0.017700
     23 H12          3.9310    -0.0900     2.4600 h1         1 FCH       0.012200
     24 H12A         3.9310    -0.8360     0.8560 h1         1 FCH       0.012200
     25 H13          1.6740     0.8830     1.9530 hc         1 FCH       0.033700
     26 H14          1.8900    -1.2480     3.1860 hc         1 FCH       0.015700
     27 H14A         1.8900    -2.1340     1.6510 hc         1 FCH       0.015700
     28 H15          1.8900     0.8860    -0.5090 hc         1 FCH       0.015700
     29 H15A         1.8900    -0.8860    -0.5090 hc         1 FCH       0.015700
     30 H16          5.9020     1.2110     1.8550 h1         1 FCH       0.009700
     31 H16A         5.9030     0.4630     0.2520 h1         1 FCH       0.009700
     32 H17          5.5530     2.7320    -0.7530 h1         1 FCH       0.028700
     33 H18         -1.5930    -1.2480     0.7230 hc         1 FCH       0.018700
     34 H18A        -0.1460    -2.1340     0.2110 hc         1 FCH       0.018700
     35 HO18         4.9880     4.2410     0.6080 ho         1 FCH       0.421000
     36 H19          7.9690     2.4750     1.0750 hx         1 FCH       0.105700
     37 H20         -0.3590    -2.1360     2.6730 hc         1 FCH       0.017700
     38 H20A        -0.3590    -0.3640     2.6730 hc         1 FCH       0.017700
     39 HN20         7.6890     0.6140    -0.3320 hn         1 FCH       0.234133
     40 H32          7.6200     4.7430     0.0700 hc         1 FCH       0.053200
     41 H32A         7.6200     3.9960    -1.5330 hc         1 FCH       0.053200
     42 H35         13.3970     3.8510    -0.7210 ha         1 FCH       0.123000
     43 H36         12.1960     4.7560     1.2320 ha         1 FCH       0.122000
     44 H37          9.7300     4.7650     1.2660 ha         1 FCH       0.107500
     45 H2           3.7130     2.0290     1.3900 hn         1 FCH       0.275800
     46 H1           8.9190     1.5160    -0.9190 hn         1 FCH       0.234133
     47 H33          9.6700     2.9440    -2.5950 ha         1 FCH       0.107500
     48 H203         7.4250     1.5270    -1.6340 hn         1 FCH       0.234133
     49 H34         12.1340     2.9610    -2.6420 ha         1 FCH       0.122000
@<TRIPOS>BOND
     1     1     6 1   
     2     1     9 1   
     3     1    21 1   
     4     1    22 1   
     5     2     3 1   
     6     2     7 1   
     7     2    45 1   
     8     3     4 1   
     9     3    23 1   
    10     3    24 1   
    11     4     5 1   
    12     4     6 1   
    13     4    25 1   
    14     5    12 1   
    15     5    26 1   
    16     5    27 1   
    17     6    28 1   
    18     6    29 1   
    19     7     8 1   
    20     7    30 1   
    21     7    31 1   
    22     8    10 1   
    23     8    11 1   
    24     8    32 1   
    25     9    12 1   
    26     9    33 1   
    27     9    34 1   
    28    10    35 1   
    29    11    13 1   
    30    11    14 1   
    31    11    36 1   
    32    12    37 1   
    33    12    38 1   
    34    13    39 1   
    35    13    46 1   
    36    13    48 1   
    37    14    20 1   
    38    14    40 1   
    39    14    41 1   
    40    15    16 ar  
    41    15    20 ar  
    42    15    47 1   
    43    16    17 ar  
    44    16    49 1   
    45    17    18 ar  
    46    17    42 1   
    47    18    19 ar  
    48    18    43 1   
    49    19    20 ar  
    50    19    44 1   
@<TRIPOS>SUBSTRUCTURE
     1 FCH         1 TEMP              0 ****  ****    0 ROOT
