@<TRIPOS>MOLECULE
molecule
   49    50     1     0     0
SMALL
bcc


@<TRIPOS>ATOM
      1 C11          0.0000     0.0000     0.0000 c3         1 FCH      -0.078900
      2 N11          4.0600     1.2550     0.8580 n7         1 FCH      -0.817200
      3 C12          3.5700    -0.0000     1.4420 c3         1 FCH       0.156800
      4 C13          2.0400     0.0000     1.4420 c3         1 FCH      -0.068700
      5 C14          1.5300    -1.2500     2.1640 c3         1 FCH      -0.072900
      6 C15          1.5300     0.0000     0.0000 c3         1 FCH      -0.072900
      7 C16          5.5280     1.2910     0.8420 c3         1 FCH       0.133800
      8 C17          5.9990     2.6100     0.2270 c3         1 FCH       0.126100
      9 C18         -0.5100    -1.2500     0.7210 c3         1 FCH      -0.081400
     10 O18          5.6040     3.6960     1.0680 oh         1 FCH      -0.574800
     11 C19          7.5230     2.5970     0.0950 c3         1 FCH       0.087500
     12 C20          0.0000    -1.2500     2.1640 c3         1 FCH      -0.078900
     13 N20          7.9300     1.4810    -0.7710 nz         1 FCH      -0.811600
     14 C32          7.9950     3.9160    -0.5200 c3         1 FCH      -0.039100
     15 C33         10.2250     3.3090    -1.7400 ca         1 FCH      -0.137000
     16 C34         11.6070     3.3230    -1.7680 ca         1 FCH      -0.104500
     17 C35         12.3140     3.8410    -0.6990 ca         1 FCH      -0.099000
     18 C36         11.6410     4.3450     0.3970 ca         1 FCH      -0.104500
     19 C37         10.2580     4.3310     0.4260 ca         1 FCH      -0.137000
     20 C38          9.5500     3.8140    -0.6430 ca         1 FCH      -0.163300
     21 H11         -0.3600     0.8840     0.5130 hc         1 FCH       0.046700
     22 H11A        -0.3600    -0.0020    -1.0220 hc         1 FCH       0.046700
     23 H12          3.9310    -0.0900     2.4600 h1         1 FCH       0.037700
     24 H12A         3.9310    -0.8360     0.8560 h1         1 FCH       0.037700
     25 H13          1.6740     0.8830     1.9530 hc         1 FCH       0.056700
     26 H14          1.8900    -1.2480     3.1860 hc         1 FCH       0.042950
     27 H14A         1.8900    -2.1340     1.6510 hc         1 FCH       0.042950
     28 H15          1.8900     0.8860    -0.5090 hc         1 FCH       0.042950
     29 H15A         1.8900    -0.8860    -0.5090 hc         1 FCH       0.042950
     30 H16          5.9020     1.2110     1.8550 h1         1 FCH       0.034700
     31 H16A         5.9030     0.4630     0.2520 h1         1 FCH       0.034700
     32 H17          5.5530     2.7320    -0.7530 h1         1 FCH       0.063700
     33 H18         -1.5930    -1.2480     0.7230 hc         1 FCH       0.047200
     34 H18A        -0.1460    -2.1340     0.2110 hc         1 FCH       0.047200
     35 HO18         4.9880     4.2410     0.6080 ho         1 FCH       0.436000
     36 H19          7.9690     2.4750     1.0750 hx         1 FCH       0.129700
     37 H20         -0.3590    -2.1360     2.6730 hc         1 FCH       0.046700
     38 H20A        -0.3590    -0.3640     2.6730 hc         1 FCH       0.046700
     39 HN20         7.6890     0.6140    -0.3320 hn         1 FCH       0.457133
     40 H32          7.6200     4.7430     0.0700 hc         1 FCH       0.090700
     41 H32A         7.6200     3.9960    -1.5330 hc         1 FCH       0.090700
     42 H35         13.3970     3.8510    -0.7210 ha         1 FCH       0.156000
     43 H36         12.1960     4.7560     1.2320 ha         1 FCH       0.154500
     44 H37          9.7300     4.7650     1.2660 ha         1 FCH       0.132000
     45 H2           3.7130     2.0290     1.3900 hn         1 FCH       0.375800
     46 H1           8.9190     1.5160    -0.9190 hn         1 FCH       0.457133
     47 H33          9.6700     2.9440    -2.5950 ha         1 FCH       0.132000
     48 H203         7.4250     1.5270    -1.6340 hn         1 FCH       0.457133
     49 H34         12.1340     2.9610    -2.6420 ha         1 FCH       0.154500
@<TRIPOS>BOND
     1     1     6 1
     2     1     9 1
     3     2     3 1
     4     2     7 1
     5     3     4 1
     6     4     5 1
     7     4     6 1
     8     5    12 1
     9     7     8 1
    10     8    10 1
    11     8    11 1
    12     9    12 1
    13    11    13 1
    14    11    14 1
    15    14    20 1
    16    15    16 ar
    17    15    20 ar
    18    16    17 ar
    19    17    18 ar
    20    18    19 ar
    21    19    20 ar
    22     1    21 1
    23     1    22 1
    24     3    23 1
    25     3    24 1
    26     4    25 1
    27     5    26 1
    28     5    27 1
    29     6    28 1
    30     6    29 1
    31     7    30 1
    32     7    31 1
    33     8    32 1
    34     9    33 1
    35     9    34 1
    36    10    35 1
    37    11    36 1
    38    12    37 1
    39    12    38 1
    40    13    39 1
    41    14    40 1
    42    14    41 1
    43    15    47 1
    44    16    49 1
    45    17    42 1
    46    18    43 1
    47    19    44 1
    48     2    45 1
    49    13    46 1
    50    48    13 1
@<TRIPOS>SUBSTRUCTURE
     1 FCH         1 TEMP              0 ****  ****    0 ROOT
