@<TRIPOS>MOLECULE
molecule
   44    46     1     0     0
SMALL
bcc


@<TRIPOS>ATOM
      1 C8           0.0000     0.0000     0.0000 cc         1 FCJ       0.382700
      2 PA          -0.0570     1.7530    -6.2810 p5         1 FCJ       1.430800
      3 O1A         -1.5920     1.5930    -5.8190 o          1 FCJ      -0.850000
      4 O2A          0.1880     0.9160    -7.4750 o          1 FCJ      -0.850000
      5 O3A          0.2380     3.2960    -6.6350 os         1 FCJ      -0.723800
      6 PB          -0.1410     4.2500    -7.8750 p5         1 FCJ       1.269600
      7 O2B         -1.6120     4.3370    -8.0010 o          1 FCJ      -0.804500
      8 O1B          0.4790     3.6390    -9.2300 o          1 FCJ      -0.804500
      9 C3B          0.5450     5.9150    -7.5920 c3         1 FCJ      -0.430800
     10 PG           0.1170     6.9960    -8.9960 p5         1 FCJ       1.109700
     11 O1G          0.7220     8.4670    -8.7450 o          1 FCJ      -0.815167
     12 O2G          0.7360     6.3850   -10.3510 o          1 FCJ      -0.815167
     13 O3G         -1.3550     7.0830    -9.1220 o          1 FCJ      -0.815167
     14 C5'          0.9670    -0.0650    -4.6120 c3         1 FCJ       0.241400
     15 C4'          1.9890    -0.1660    -3.4770 c3         1 FCJ       0.134100
     16 O4'          1.5210     0.5400    -2.3080 os         1 FCJ      -0.372600
     17 C1'          2.2310     0.0010    -1.1800 c3         1 FCJ       0.259800
     18 N9           1.3630     0.0000     0.0000 na         1 FCJ      -0.259000
     19 C4           1.7730     0.0000     1.3090 ca         1 FCJ       0.468800
     20 N3           2.9530    -0.0050     1.9230 nb         1 FCJ      -0.822000
     21 C2           3.0250    -0.0110     3.2380 ca         1 FCJ       0.586900
     22 N1           1.9500    -0.0110     4.0060 nb         1 FCJ      -0.814000
     23 C6           0.7300    -0.0060     3.4820 ca         1 FCJ       0.649200
     24 N6          -0.3900    -0.0070     4.2960 nv         1 FCJ      -1.030500
     25 C5           0.6010    -0.0000     2.0830 ca         1 FCJ      -0.210200
     26 N7          -0.4450     0.0050     1.2220 nd         1 FCJ      -0.618100
     27 C2'          2.6290    -1.4450    -1.5380 c3         1 FCJ      -0.160400
     28 C3'          2.1210    -1.6310    -2.9900 c3         1 FCJ       0.099100
     29 O3'          3.0740    -2.3510    -3.7750 oh         1 FCJ      -0.596800
     30 H1          -0.6210    -0.0030    -0.8870 h5         1 FCJ       0.092800
     31 H4           1.6220     5.8520    -7.5000 hc         1 FCJ       0.034200
     32 H5           0.1280     6.3270    -6.6800 hc         1 FCJ       0.034200
     33 H8           1.2610    -0.7210    -5.4220 h1         1 FCJ       0.031700
     34 H9          -0.0090    -0.3580    -4.2460 h1         1 FCJ       0.031700
     35 H10          2.9530     0.2170    -3.7900 h1         1 FCJ       0.071700
     36 H11          3.1200     0.5900    -0.9900 h2         1 FCJ       0.074700
     37 H12          3.9980    -0.0020     3.7130 h5         1 FCJ       0.014100
     38 H13         -0.3700    -0.4860     5.1740 hn         1 FCJ       0.413800
     39 H14         -1.2060     0.5060     4.0250 hn         1 FCJ       0.413800
     40 H15          2.1380    -2.1470    -0.8740 hc         1 FCJ       0.054200
     41 H16          3.7050    -1.5620    -1.4960 hc         1 FCJ       0.054200
     42 H17          1.1560    -2.1250    -2.9980 h1         1 FCJ       0.048700
     43 H18          2.8190    -3.2570    -3.8270 ho         1 FCJ       0.383000
     44 O5'          0.9140     1.2830    -5.0850 os         1 FCJ      -0.590200
@<TRIPOS>BOND
     1    21    20 ar
     2    21    22 ar
     3    20    19 ar
     4    22    23 ar
     5    19    25 ar
     6    19    18 1
     7    23    24 1
     8    23    25 ar
     9    27    17 1
    10    27    28 1
    11    17    18 1
    12    17    16 1
    13    25    26 1
    14    18     1 1
    15    29    28 1
    16    28    15 1
    17    16    15 1
    18    26     1 2
    19    15    14 1
    20     7     6 1
    21    14    44 1
    22    44     2 1
    23     5     6 1
    24     5     2 1
    25     6     8 1
    26     6     9 1
    27     2     4 1
    28     2     3 1
    29     9    10 1
    30    10    13 1
    31    10    11 1
    32    10    12 1
    33     1    30 1
    34     9    31 1
    35     9    32 1
    36    14    33 1
    37    14    34 1
    38    15    35 1
    39    17    36 1
    40    21    37 1
    41    24    38 1
    42    24    39 1
    43    27    40 1
    44    27    41 1
    45    28    42 1
    46    29    43 1
@<TRIPOS>SUBSTRUCTURE
     1 FCJ         1 TEMP              0 ****  ****    0 ROOT
