@<TRIPOS>MOLECULE
molecule
   42    43     1     0     0
SMALL
bcc


@<TRIPOS>ATOM
      1 C1           0.0000     0.0000     0.0000 ca         1 FCK      -0.167000
      2 C2           1.3840     0.0000     0.0000 ca         1 FCK      -0.129000
      3 C3           2.0820     0.0000     1.1950 ca         1 FCK      -0.129300
      4 C4           1.4010    -0.0020     2.3940 ca         1 FCK      -0.100000
      5 C5           0.0050    -0.0020     2.4020 ca         1 FCK      -0.104600
      6 C6          -0.6930     0.0050     1.1930 ca         1 FCK      -0.088000
      7 C7           5.5460     1.4240     1.1740 c3         1 FCK       0.160800
      8 O39         -0.1210    -0.0050     4.7340 o          1 FCK      -0.837800
      9 C38         -0.7300    -0.0040     3.6830 c          1 FCK       0.882200
     10 O40         -2.0770    -0.0040     3.6870 o          1 FCK      -0.837800
     11 C17          3.5880    -0.0010     1.1850 c3         1 FCK       0.213100
     12 N18          4.0780     1.3850     1.1830 n7         1 FCK      -0.814200
     13 C22          6.0180     2.8800     1.1720 c3         1 FCK      -0.084400
     14 C23          7.5470     2.9210     1.1610 c3         1 FCK       0.140400
     15 O27          7.9870     4.2810     1.1600 os         1 FCK      -0.185300
     16 N31          9.3950     4.4310     1.1500 n2         1 FCK      -0.423200
     17 C30          9.9200     5.6130     1.1480 ce         1 FCK       0.399500
     18 C16         11.3840     5.7690     1.1390 cc         1 FCK       0.050000
     19 N11         12.2020     4.6590     1.1320 ns         1 FCK      -0.447100
     20 C15         11.9440     7.0140     1.1310 cd         1 FCK      -0.308200
     21 C14         13.3530     7.1290     1.1210 c          1 FCK       0.705700
     22 O33         13.8780     8.2290     1.1140 o          1 FCK      -0.622500
     23 N13         14.1120     6.0160     1.1200 ns         1 FCK      -0.562500
     24 C12         13.5410     4.7980     1.1240 c          1 FCK       0.809500
     25 O34         14.2450     3.8070     1.1230 o          1 FCK      -0.651500
     26 H1          -0.5400     0.0030    -0.9390 ha         1 FCK       0.106000
     27 H2           1.9230    -0.0010    -0.9400 ha         1 FCK       0.105000
     28 H4           1.9490    -0.0040     3.3290 ha         1 FCK       0.141000
     29 H6          -1.7760     0.0050     1.1910 ha         1 FCK       0.154000
     30 H7           5.9260     0.9230     2.0560 h1         1 FCK       0.027200
     31 H7A          5.9150     0.9240     0.2870 h1         1 FCK       0.027200
     32 H17          3.9550    -0.5120     2.0670 h1         1 FCK       0.027700
     33 H17A         3.9440    -0.5110     0.2980 h1         1 FCK       0.027700
     34 HN18         3.7370     1.8610     1.9950 hn         1 FCK       0.364800
     35 H22          5.6490     3.3800     2.0600 hc         1 FCK       0.062700
     36 H22A         5.6370     3.3810     0.2910 hc         1 FCK       0.062700
     37 H23          7.9160     2.4210     0.2740 h1         1 FCK       0.038700
     38 H23A         7.9280     2.4190     2.0430 h1         1 FCK       0.038700
     39 HN13        15.1090     6.0960     1.1130 hn         1 FCK       0.362500
     40 H30          9.2830     6.4890     1.1530 h4         1 FCK       0.028800
     41 H171        11.7980     3.7430     1.1350 hn         1 FCK       0.375500
     42 H15         11.3300     7.8850     1.3250 ha         1 FCK       0.181000
@<TRIPOS>BOND
     1     1    26 1
     2     2     1 ar
     3     2    27 1
     4     3     2 ar
     5     4     3 ar
     6     4     5 ar
     7     4    28 1
     8     5     6 ar
     9     6     1 ar
    10     6    29 1
    11     7    12 1
    12     7    30 1
    13     7    31 1
    14     8     9 1
    15     9     5 1
    16     9    10 1
    17    11     3 1
    18    11    32 1
    19    11    33 1
    20    12    11 1
    21    12    34 1
    22    13     7 1
    23    13    35 1
    24    13    36 1
    25    14    13 1
    26    14    37 1
    27    14    38 1
    28    15    14 1
    29    16    15 1
    30    17    16 2
    31    18    17 1
    32    19    18 1
    33    20    18 2
    34    21    20 1
    35    21    23 1
    36    22    21 2
    37    23    24 1
    38    23    39 1
    39    24    19 1
    40    25    24 2
    41    17    40 1
    42    19    41 1
    43    20    42 1
@<TRIPOS>SUBSTRUCTURE
     1 FCK         1 TEMP              0 ****  ****    0 ROOT
