@<TRIPOS>MOLECULE
FCK
   42    44     1     0     0
SMALL
bcc


@<TRIPOS>ATOM
      1 C1           0.0000     0.0000     0.0000 ca         1 FCK      -0.147000
      2 C2           1.3840     0.0000     0.0000 ca         1 FCK      -0.109000
      3 C3           2.0820     0.0000     1.1950 ca         1 FCK      -0.139000
      4 C4           1.4010    -0.0020     2.3940 ca         1 FCK      -0.073000
      5 C5           0.0050    -0.0020     2.4020 ca         1 FCK      -0.083000
      6 C6          -0.6930     0.0050     1.1930 ca         1 FCK      -0.060000
      7 C7           5.5460     1.4240     1.1740 c3         1 FCK      -0.087000
      8 O39         -0.1210    -0.0050     4.7340 o          1 FCK      -0.620500
      9 C38         -0.7300    -0.0040     3.6830 c2         1 FCK       0.423000
     10 O40         -2.0770    -0.0040     3.6870 o          1 FCK      -0.620500
     11 C17          3.5880    -0.0010     1.1850 c3         1 FCK      -0.029000
     12 N18          4.0780     1.3850     1.1830 n7         1 FCK      -0.064000
     13 C22          6.0180     2.8800     1.1720 c3         1 FCK      -0.114000
     14 C23          7.5470     2.9210     1.1610 c3         1 FCK       0.053000
     15 O27          7.9870     4.2810     1.1600 os         1 FCK      -0.150000
     16 N31          9.3950     4.4310     1.1500 n2         1 FCK       0.099000
     17 C30          9.9200     5.6130     1.1480 c2         1 FCK      -0.312000
     18 C16         11.3840     5.7690     1.1390 c3         1 FCK      -0.160000
     19 N11         12.2020     4.6590     1.1320 ns         1 FCK       0.128000
     20 C15         11.9440     7.0140     1.1310 c2         1 FCK      -0.189000
     21 C14         13.3530     7.1290     1.1210 c2         1 FCK       0.238000
     22 O33         13.8780     8.2290     1.1140 o          1 FCK      -0.375000
     23 N13         14.1120     6.0160     1.1200 ns         1 FCK       0.095000
     24 C12         13.5410     4.7980     1.1240 c2         1 FCK       0.169000
     25 O34         14.2450     3.8070     1.1230 o          1 FCK      -0.425000
     26 H1          -0.5400     0.0020    -0.9390 ha         1 FCK       0.084000
     27 H2           1.9240    -0.0020    -0.9390 ha         1 FCK       0.085000
     28 H4           1.9490    -0.0050     3.3290 ha         1 FCK       0.118000
     29 H6          -1.7760     0.0040     1.1920 ha         1 FCK       0.128000
     30 H7           5.9260     0.9220     2.0550 h1         1 FCK       0.040500
     31 H7A          5.9150     0.9240     0.2870 h1         1 FCK       0.040500
     32 H17          3.9550    -0.5130     2.0670 h1         1 FCK       0.039500
     33 H17A         3.9440    -0.5110     0.2980 h1         1 FCK       0.039500
     34 HN18         3.7370     1.8610     1.9950 hn         1 FCK       0.062000
     35 H22          5.6490     3.3800     2.0590 hc         1 FCK       0.072000
     36 H22A         5.6360     3.3820     0.2910 hc         1 FCK       0.072000
     37 H23          7.9290     2.4200     2.0430 h1         1 FCK       0.042500
     38 H23A         7.9160     2.4210     0.2740 h1         1 FCK       0.042500
     39 HN13        15.1090     6.0960     1.1150 hn         1 FCK       0.120000
     40 H30         10.5420     5.4940     0.2690 DU         1 FCK       0.276000
     41 H171        11.7980     3.7430     1.1350 hn         1 FCK       0.122000
     42 H15         11.3300     7.8850     1.3250 ha         1 FCK       0.167000
@<TRIPOS>BOND
     1     1     2 1   
     2     1     6 1   
     3     1    26 1   
     4     2     3 1   
     5     2    27 1   
     6     3     4 1   
     7     3    11 1   
     8     4     5 1   
     9     4    28 1   
    10     5     6 1   
    11     5     9 1   
    12     6    29 1   
    13     7    12 1   
    14     7    13 1   
    15     7    30 1   
    16     7    31 1   
    17     8     9 1   
    18     9    10 1   
    19    11    12 1   
    20    11    32 1   
    21    11    33 1   
    22    12    34 1   
    23    13    14 1   
    24    13    35 1   
    25    13    36 1   
    26    14    15 1   
    27    14    37 1   
    28    14    38 1   
    29    15    16 1   
    30    16    17 1   
    31    17    18 1   
    32    17    40 1   
    33    18    19 1   
    34    18    20 1   
    35    18    40 1   
    36    19    24 1   
    37    19    41 1   
    38    20    21 1   
    39    20    42 1   
    40    21    22 1   
    41    21    23 1   
    42    23    24 1   
    43    23    39 1   
    44    24    25 1   
@<TRIPOS>SUBSTRUCTURE
     1 FCK         1 TEMP              0 ****  ****    0 ROOT
