@<TRIPOS>MOLECULE
molecule
   65    69     1     0     0
SMALL
bcc


@<TRIPOS>ATOM
      1 C1           0.0000     0.0000     0.0000 ce         1 FCM      -0.342400
      2 C2           1.4060     0.0000     0.0000 ce         1 FCM       0.247100
      3 C3           2.1580     0.0000     1.1850 ce         1 FCM      -0.218000
      4 C4           1.5770     0.1610     2.3770 c2         1 FCM       0.150900
      5 C5           0.0920     0.5210     2.4380 c3         1 FCM      -0.118500
      6 C6          -0.7200     0.2290     1.2020 c          1 FCM       0.610300
      7 O7           1.8790    -0.0100     3.6800 os         1 FCM      -0.191200
      8 C8           0.8240    -0.6430     4.2750 ca         1 FCM       0.190100
      9 C9          -0.3500    -0.3660     3.5750 ca         1 FCM      -0.217300
     10 C10          0.7600    -1.4730     5.4050 ca         1 FCM      -0.198600
     11 C11         -0.4740    -1.9980     5.8170 ca         1 FCM       0.233100
     12 C12         -1.6260    -1.7030     5.1100 ca         1 FCM      -0.326000
     13 C13         -1.5600    -0.8850     3.9860 ca         1 FCM       0.241100
     14 O14         -1.9330     0.1830     1.2350 o          1 FCM      -0.490100
     15 C15         -0.7010    -0.2240    -1.2060 c          1 FCM       0.611300
     16 C16         -1.5360     0.8770    -1.8070 c3         1 FCM      -0.184100
     17 O17         -0.6310    -1.3040    -1.7560 o          1 FCM      -0.524100
     18 O18          2.0550    -0.0020    -1.1820 oh         1 FCM      -0.489100
     19 C19         -0.0720     1.9900     2.8340 c3         1 FCM      -0.063100
     20 O20         -2.6910    -0.5960     3.2930 oh         1 FCM      -0.459100
     21 C21          1.9830    -1.7910     6.1560 c          1 FCM       0.687700
     22 O22          2.3340    -1.0780     7.0770 o          1 FCM      -0.592100
     23 N23          2.7170    -2.8720     5.8230 ns         1 FCM      -0.573900
     24 C24          3.9360    -3.1880     6.5710 c3         1 FCM       0.161300
     25 C25          4.5650    -4.4350     6.0040 ca         1 FCM      -0.125300
     26 C26          4.2160    -5.6580     6.4910 ca         1 FCM      -0.032300
     27 C27          4.7850    -6.8220     5.9800 ca         1 FCM      -0.173000
     28 C28          5.7080    -6.7700     4.9770 ca         1 FCM       0.154900
     29 C29          6.0920    -5.5240     4.4500 ca         1 FCM      -0.077000
     30 C30          5.5080    -4.3410     4.9670 ca         1 FCM       0.001000
     31 C31          7.0390    -5.4290     3.4170 ca         1 FCM      -0.102000
     32 C32          7.3860    -4.2070     2.9310 ca         1 FCM      -0.131000
     33 C33          6.8170    -3.0420     3.4440 ca         1 FCM      -0.113000
     34 C34          5.8870    -3.0970     4.4370 ca         1 FCM      -0.129000
     35 O35         -0.5390    -2.7980     6.9110 os         1 FCM      -0.311900
     36 C36         -1.8270    -3.2980     7.2750 c3         1 FCM       0.127700
     37 C37          3.1990    -5.7540     7.5990 c3         1 FCM      -0.046100
     38 F38          6.2510    -7.9090     4.4940 f          1 FCM      -0.135900
     39 C39          1.7910    -5.7470     7.0020 c3         1 FCM      -0.089100
     40 H2           3.2320    -0.1340     1.1310 ha         1 FCM       0.153000
     41 H4          -2.5780    -2.1090     5.4290 ha         1 FCM       0.151000
     42 H5          -1.3980     0.8890    -2.8810 hc         1 FCM       0.062033
     43 H6          -2.5800     0.7040    -1.5780 hc         1 FCM       0.062033
     44 H7          -1.2280     1.8300    -1.3930 hc         1 FCM       0.062033
     45 H8           2.6960    -0.6940    -1.1880 ho         1 FCM       0.439000
     46 H9           0.3110     2.6230     2.0420 hc         1 FCM       0.055033
     47 H10          0.4790     2.1810     3.7470 hc         1 FCM       0.055033
     48 H11         -1.1210     2.2060     2.9930 hc         1 FCM       0.055033
     49 H12         -3.4150    -0.5210     3.8920 ho         1 FCM       0.421000
     50 H13          2.4540    -3.4320     5.0370 hn         1 FCM       0.321500
     51 H14          3.6890    -3.3500     7.6130 h1         1 FCM       0.062700
     52 H15          4.6330    -2.3630     6.4900 h1         1 FCM       0.062700
     53 H16          4.4900    -7.7830     6.3850 ha         1 FCM       0.148000
     54 H17          7.4910    -6.3250     3.0090 ha         1 FCM       0.145000
     55 H18          8.1240    -4.1370     2.1410 ha         1 FCM       0.133000
     56 H19          7.1110    -2.0810     3.0390 ha         1 FCM       0.131000
     57 H20          5.4520    -2.1840     4.8260 ha         1 FCM       0.146000
     58 H21         -1.7400    -3.9030     8.1690 h1         1 FCM       0.047700
     59 H22         -2.2210    -3.9030     6.4670 h1         1 FCM       0.047700
     60 H23         -2.4970    -2.4680     7.4640 h1         1 FCM       0.047700
     61 H24          3.3120    -4.9080     8.2670 hc         1 FCM       0.055200
     62 H25          3.3530    -6.6730     8.1510 hc         1 FCM       0.055200
     63 H26          1.3110    -6.6980     7.1990 hc         1 FCM       0.039367
     64 H27          1.2120    -4.9500     7.4510 hc         1 FCM       0.039367
     65 H28          1.8530    -5.5900     5.9320 hc         1 FCM       0.039367
@<TRIPOS>BOND
     1    39    37 1
     2    37    26 1
     3    27    26 ar
     4    27    28 ar
     5    38    28 1
     6    26    25 ar
     7    28    29 ar
     8    25    24 1
     9    25    30 ar
    10    29    30 ar
    11    29    31 ar
    12    24    23 1
    13    30    34 ar
    14    31    32 ar
    15    34    33 ar
    16    32    33 ar
    17    22    21 2
    18    23    21 1
    19    21    10 1
    20    10     8 ar
    21    10    11 ar
    22     7     8 1
    23     7     4 1
    24    35    11 1
    25    35    36 1
    26     8     9 ar
    27    11    12 ar
    28     4     3 2
    29     4     5 1
    30     3     2 1
    31     9     5 1
    32     9    13 ar
    33    12    13 ar
    34     5    19 1
    35     5     6 1
    36     2    18 1
    37     2     1 2
    38    13    20 1
    39     6     1 1
    40     6    14 2
    41     1    15 1
    42    15    16 1
    43    15    17 2
    44     3    40 1
    45    12    41 1
    46    16    42 1
    47    16    43 1
    48    16    44 1
    49    18    45 1
    50    19    46 1
    51    19    47 1
    52    19    48 1
    53    20    49 1
    54    23    50 1
    55    24    51 1
    56    24    52 1
    57    27    53 1
    58    31    54 1
    59    32    55 1
    60    33    56 1
    61    34    57 1
    62    36    58 1
    63    36    59 1
    64    36    60 1
    65    37    61 1
    66    37    62 1
    67    39    63 1
    68    39    64 1
    69    39    65 1
@<TRIPOS>SUBSTRUCTURE
     1 FCM         1 TEMP              0 ****  ****    0 ROOT
