@<TRIPOS>MOLECULE
FCM
   65    69     1     0     0
SMALL
bcc


@<TRIPOS>ATOM
      1 C1           0.0000     0.0000     0.0000 ce         1 FCM      -0.381400
      2 C2           1.4060     0.0000     0.0000 cf         1 FCM       0.282100
      3 C3           2.1580     0.0000     1.1850 cf         1 FCM      -0.210000
      4 C4           1.5770     0.1610     2.3770 c2         1 FCM       0.159900
      5 C5           0.0920     0.5210     2.4380 c3         1 FCM      -0.094500
      6 C6          -0.7200     0.2290     1.2020 c          1 FCM       0.659300
      7 O7           1.8790    -0.0100     3.6800 os         1 FCM      -0.174200
      8 C8           0.8240    -0.6430     4.2750 ca         1 FCM       0.203100
      9 C9          -0.3500    -0.3660     3.5750 ca         1 FCM      -0.250300
     10 C10          0.7600    -1.4730     5.4050 ca         1 FCM      -0.223600
     11 C11         -0.4740    -1.9980     5.8170 ca         1 FCM       0.252100
     12 C12         -1.6260    -1.7030     5.1100 ca         1 FCM      -0.333000
     13 C13         -1.5600    -0.8850     3.9860 ca         1 FCM       0.274100
     14 O14         -1.9330     0.1830     1.2350 o          1 FCM      -0.531100
     15 C15         -0.7010    -0.2240    -1.2060 c          1 FCM       0.666300
     16 C16         -1.5360     0.8770    -1.8070 c3         1 FCM      -0.085100
     17 O17         -0.6310    -1.3040    -1.7560 o          1 FCM      -0.565100
     18 O18          2.0550    -0.0020    -1.1820 oh         1 FCM      -0.475100
     19 C19         -0.0720     1.9900     2.8340 c3         1 FCM       0.030900
     20 O20         -2.6910    -0.5960     3.2930 oh         1 FCM      -0.439100
     21 C21          1.9830    -1.7910     6.1560 c          1 FCM       0.610700
     22 O22          2.3340    -1.0780     7.0770 o          1 FCM      -0.636100
     23 N23          2.7170    -2.8720     5.8230 ns         1 FCM      -0.188900
     24 C24          3.9360    -3.1880     6.5710 c3         1 FCM       0.097300
     25 C25          4.5650    -4.4350     6.0040 ca         1 FCM      -0.124300
     26 C26          4.2160    -5.6580     6.4910 ca         1 FCM      -0.037300
     27 C27          4.7850    -6.8220     5.9800 ca         1 FCM      -0.137000
     28 C28          5.7080    -6.7700     4.9770 ca         1 FCM       0.128900
     29 C29          6.0920    -5.5240     4.4500 ca         1 FCM      -0.070000
     30 C30          5.5080    -4.3410     4.9670 ca         1 FCM       0.005000
     31 C31          7.0390    -5.4290     3.4170 ca         1 FCM      -0.073000
     32 C32          7.3860    -4.2070     2.9310 ca         1 FCM      -0.104000
     33 C33          6.8170    -3.0420     3.4440 ca         1 FCM      -0.082000
     34 C34          5.8870    -3.0970     4.4370 ca         1 FCM      -0.112000
     35 O35         -0.5390    -2.7980     6.9110 os         1 FCM      -0.298900
     36 C36         -1.8270    -3.2980     7.2750 c3         1 FCM       0.245700
     37 C37          3.1990    -5.7540     7.5990 c3         1 FCM       0.012900
     38 F38          6.2510    -7.9090     4.4940 f          1 FCM      -0.124900
     39 C39          1.7910    -5.7470     7.0020 c3         1 FCM      -0.002100
     40 H2           3.2320    -0.1340     1.1310 ha         1 FCM       0.126000
     41 H4          -2.5780    -2.1090     5.4290 ha         1 FCM       0.139000
     42 H5          -1.3980     0.8890    -2.8810 hc         1 FCM       0.025367
     43 H6          -2.5800     0.7040    -1.5780 hc         1 FCM       0.025367
     44 H7          -1.2280     1.8300    -1.3930 hc         1 FCM       0.025367
     45 H8           2.6960    -0.6940    -1.1880 ho         1 FCM       0.419000
     46 H9           0.3110     2.6230     2.0420 hc         1 FCM       0.018700
     47 H10          0.4790     2.1810     3.7470 hc         1 FCM       0.018700
     48 H11         -1.1210     2.2060     2.9930 hc         1 FCM       0.018700
     49 H12         -3.4150    -0.5210     3.8920 ho         1 FCM       0.397000
     50 H13          2.4540    -3.4320     5.0370 hn         1 FCM       0.181500
     51 H14          3.6890    -3.3500     7.6130 h1         1 FCM       0.039200
     52 H15          4.6330    -2.3630     6.4900 h1         1 FCM       0.039200
     53 H16          4.4900    -7.7830     6.3850 ha         1 FCM       0.124000
     54 H17          7.4910    -6.3250     3.0090 ha         1 FCM       0.117000
     55 H18          8.1240    -4.1370     2.1410 ha         1 FCM       0.105000
     56 H19          7.1110    -2.0810     3.0390 ha         1 FCM       0.102000
     57 H20          5.4520    -2.1840     4.8260 ha         1 FCM       0.121000
     58 H21         -1.7400    -3.9030     8.1690 h1         1 FCM       0.001700
     59 H22         -2.2210    -3.9030     6.4670 h1         1 FCM       0.001700
     60 H23         -2.4970    -2.4680     7.4640 h1         1 FCM       0.001700
     61 H24          3.3120    -4.9080     8.2670 hc         1 FCM       0.027200
     62 H25          3.3530    -6.6730     8.1510 hc         1 FCM       0.027200
     63 H26          1.3110    -6.6980     7.1990 hc         1 FCM       0.007367
     64 H27          1.2120    -4.9500     7.4510 hc         1 FCM       0.007367
     65 H28          1.8530    -5.5900     5.9320 hc         1 FCM       0.007367
@<TRIPOS>BOND
     1     1     2 2   
     2     1     6 1   
     3     1    15 1   
     4     2     3 1   
     5     2    18 1   
     6     3     4 2   
     7     3    40 1   
     8     4     5 1   
     9     4     7 1   
    10     5     6 1   
    11     5     9 1   
    12     5    19 1   
    13     6    14 2   
    14     7     8 1   
    15     8     9 ar  
    16     8    10 ar  
    17     9    13 ar  
    18    10    11 ar  
    19    10    21 1   
    20    11    12 ar  
    21    11    35 1   
    22    12    13 ar  
    23    12    41 1   
    24    13    20 1   
    25    15    16 1   
    26    15    17 2   
    27    16    42 1   
    28    16    43 1   
    29    16    44 1   
    30    18    45 1   
    31    19    46 1   
    32    19    47 1   
    33    19    48 1   
    34    20    49 1   
    35    21    22 2   
    36    21    23 1   
    37    23    24 1   
    38    23    50 1   
    39    24    25 1   
    40    24    51 1   
    41    24    52 1   
    42    25    26 ar  
    43    25    30 ar  
    44    26    27 ar  
    45    26    37 1   
    46    27    28 ar  
    47    27    53 1   
    48    28    29 ar  
    49    28    38 1   
    50    29    30 ar  
    51    29    31 ar  
    52    30    34 ar  
    53    31    32 ar  
    54    31    54 1   
    55    32    33 ar  
    56    32    55 1   
    57    33    34 ar  
    58    33    56 1   
    59    34    57 1   
    60    35    36 1   
    61    36    58 1   
    62    36    59 1   
    63    36    60 1   
    64    37    39 1   
    65    37    61 1   
    66    37    62 1   
    67    39    63 1   
    68    39    64 1   
    69    39    65 1   
@<TRIPOS>SUBSTRUCTURE
     1 FCM         1 TEMP              0 ****  ****    0 ROOT
