@<TRIPOS>MOLECULE
FCN
   13    12     1     0     0
SMALL
bcc


@<TRIPOS>ATOM
      1 C1          0.1190   -0.1670   -0.1700 cu        1 FCN     -0.469000
      2 C2          1.6050   -0.0310   -0.2250 cx        1 FCN     -0.089000
      3 C3          2.5070   -1.2140   -0.1190 c3        1 FCN     -0.175000
      4 O           0.8940    0.3370    0.9620 os        1 FCN     -0.346000
      5 P          -1.3230   -1.7300   -0.5160 p3        1 FCN      2.557000
      6 O1P        -0.5660   -2.9990   -0.2810 o         1 FCN     -1.230333
      7 O2P        -2.4030   -1.3950    0.4610 o         1 FCN     -1.230333
      8 O3P        -1.5930   -1.3640   -1.9420 o         1 FCN     -1.230333
      9 H1         -0.4400    0.6600   -0.6580 h4        1 FCN      0.025000
     10 H2          2.0880    0.8410   -0.7190 h1        1 FCN      0.023000
     11 H31         3.3930   -0.9880    0.5270 hc        1 FCN      0.054667
     12 H32         1.9520   -2.0840    0.3140 hc        1 FCN      0.054667
     13 H33         2.8770   -1.4970   -1.1350 hc        1 FCN      0.054667
@<TRIPOS>BOND
     1    1    2 1   
     2    1    4 1   
     3    1    9 1   
     4    2    3 1   
     5    2    4 1   
     6    2   10 1   
     7    3   11 1   
     8    3   12 1   
     9    3   13 1   
    10    5    6 1   
    11    5    7 1   
    12    5    8 1   
@<TRIPOS>SUBSTRUCTURE
     1 FCN         1 TEMP              0 ****  ****    0 ROOT
