@<TRIPOS>MOLECULE
molecule
   13    13     1     0     0
SMALL
bcc


@<TRIPOS>ATOM
      1 C1           0.0000     0.0000     0.0000 cx         1 FCN      -0.013100
      2 C2           1.5300     0.0000     0.0000 cx         1 FCN       0.006100
      3 C3           2.2420    -1.2940    -0.3930 c3         1 FCN      -0.077100
      4 O            0.7660     0.0000     1.2070 op         1 FCN      -0.417600
      5 P           -0.8500    -1.5420    -0.4660 p5         1 FCN       1.043700
      6 O1P         -0.4150    -2.6360     0.4320 o          1 FCN      -0.906500
      7 O2P         -2.4410    -1.3410    -0.3330 o          1 FCN      -0.906500
      8 O3P         -0.4830    -1.9200    -1.9880 o          1 FCN      -0.906500
      9 H1          -0.4550     0.9510    -0.2500 h1         1 FCN       0.025700
     10 H2           1.9850     0.9510    -0.2510 h1         1 FCN       0.017700
     11 H31          1.9540    -1.5740    -1.3990 hc         1 FCN       0.045033
     12 H32          1.9640    -2.0830     0.2950 hc         1 FCN       0.045033
     13 H33          3.3140    -1.1430    -0.3540 hc         1 FCN       0.045033
@<TRIPOS>BOND
     1     1     2 1
     2     1     4 1
     3     1     5 1
     4     1     9 1
     5     2     3 1
     6     2     4 1
     7     2    10 1
     8     3    11 1
     9     3    12 1
    10     3    13 1
    11     5     6 1
    12     5     7 1
    13     5     8 1
@<TRIPOS>SUBSTRUCTURE
     1 FCN         1 TEMP              0 ****  ****    0 ROOT
