@<TRIPOS>MOLECULE
molecule
   53    55     1     0     0
SMALL
bcc


@<TRIPOS>ATOM
      1 C22          0.0000     0.0000     0.0000 ca         1 FCP      -0.109500
      2 C1           4.9220     2.0040    -0.3800 ca         1 FCP       0.752900
      3 C5           3.3060     0.6490    -1.3100 ca         1 FCP       0.750200
      4 C4           4.0700     0.5500    -2.4700 ca         1 FCP      -0.498600
      5 C3           5.2870     1.2240    -2.5180 ca         1 FCP       0.757200
      6 C17          1.3880     0.0000     0.0000 ca         1 FCP       0.122600
      7 C18          2.0810     0.0000     1.2020 ca         1 FCP      -0.109500
      8 C19          1.3900     0.0020     2.3980 ca         1 FCP      -0.174000
      9 C20          0.0030     0.0030     2.3960 ca         1 FCP       0.104100
     10 N2           5.6740     1.9350    -1.4600 nb         1 FCP      -0.834000
     11 N6           3.7620     1.3840    -0.2970 nb         1 FCP      -0.831000
     12 N7           6.0830     1.1590    -3.6510 nu         1 FCP      -0.771300
     13 N16          2.0870    -0.0030    -1.2120 nu         1 FCP      -0.764300
     14 C21         -0.6900    -0.0030     1.1970 ca         1 FCP      -0.174000
     15 O23         -0.6780     0.0060     3.5740 os         1 FCP      -0.298900
     16 C24         -2.0680     0.0070     3.2480 c3         1 FCP       0.091400
     17 C11          4.8410    -1.0730    -6.9470 ca         1 FCP      -0.084000
     18 C10          5.0680     0.2840    -7.0800 ca         1 FCP      -0.175000
     19 C9           5.4810     1.0280    -5.9890 ca         1 FCP       0.146400
     20 C8           5.6660     0.4090    -4.7580 ca         1 FCP       0.069600
     21 C12          5.0240    -1.6920    -5.7250 ca         1 FCP      -0.175000
     22 C13          5.4420    -0.9560    -4.6300 ca         1 FCP       0.146400
     23 F15          5.6200    -1.5620    -3.4360 f          1 FCP      -0.121900
     24 C25         -2.8950     0.0100     4.5350 c3         1 FCP       0.152100
     25 C26         -4.3840     0.0100     4.1860 c3         1 FCP       0.132800
     26 N27         -5.1770     0.0370     5.4220 n3         1 FCP      -0.656600
     27 C28         -5.1250     1.4130     5.9290 c3         1 FCP       0.120600
     28 C29         -6.5710    -0.2180     5.0350 c3         1 FCP       0.120600
     29 O30         -2.5870    -1.1560     5.3020 oh         1 FCP      -0.582800
     30 H22         -0.5420    -0.0030    -0.9380 ha         1 FCP       0.146500
     31 HL           5.2660     2.5920     0.4630 h5         1 FCP       0.060100
     32 HB           3.7270    -0.0380    -3.3130 ha         1 FCP       0.144000
     33 HE           3.1640    -0.0000     1.2030 ha         1 FCP       0.146500
     34 HF           1.9300     0.0050     3.3370 ha         1 FCP       0.143500
     35 HD           6.9680     1.6250    -3.6680 hn         1 FCP       0.470800
     36 HC           1.7190    -0.4980    -2.0010 hn         1 FCP       0.455800
     37 HA          -1.7740    -0.0030     1.1970 ha         1 FCP       0.143500
     38 HA1         -2.3040    -0.8780     2.6700 h1         1 FCP       0.048200
     39 HB2         -2.3020     0.8910     2.6670 h1         1 FCP       0.048200
     40 HH           4.5160    -1.6520    -7.8030 ha         1 FCP       0.147000
     41 HI           4.9240     0.7650    -8.0390 ha         1 FCP       0.154500
     42 HJ           4.8470    -2.7560    -5.6250 ha         1 FCP       0.154500
     43 HG          -2.6600     0.8950     5.1140 h1         1 FCP       0.042700
     44 HB1         -4.6150     0.8840     3.5900 h1         1 FCP       0.045200
     45 HC2         -4.6230    -0.8850     3.6230 h1         1 FCP       0.045200
     46 HC1         -4.2120     1.5550     6.4950 h1         1 FCP       0.035200
     47 HD2         -5.9790     1.5950     6.5690 h1         1 FCP       0.035200
     48 HE3         -5.1440     2.1050     5.0960 h1         1 FCP       0.035200
     49 HD1         -7.2040    -0.1710     5.9120 h1         1 FCP       0.035200
     50 HE2         -6.6480    -1.2010     4.5860 h1         1 FCP       0.035200
     51 HF3         -6.8900     0.5310     4.3200 h1         1 FCP       0.035200
     52 HK          -1.9750    -0.9320     5.9830 ho         1 FCP       0.408000
     53 F14          5.7020     2.3540    -6.1190 f          1 FCP      -0.121900
@<TRIPOS>BOND
     1     1     6 ar
     2     1    14 ar
     3     1    30 1
     4     2    10 ar
     5     2    11 ar
     6     2    31 1
     7     3     4 ar
     8     3    11 ar
     9     3    13 1
    10     4     5 ar
    11     4    32 1
    12     5    10 ar
    13     5    12 1
    14     6     7 ar
    15     6    13 1
    16     7     8 ar
    17     7    33 1
    18     8     9 ar
    19     8    34 1
    20     9    14 ar
    21     9    15 1
    22    12    20 1
    23    12    35 1
    24    13    36 1
    25    14    37 1
    26    15    16 1
    27    16    24 1
    28    16    38 1
    29    16    39 1
    30    17    18 ar
    31    17    21 ar
    32    17    40 1
    33    18    19 ar
    34    18    41 1
    35    19    20 ar
    36    19    53 1
    37    20    22 ar
    38    21    22 ar
    39    21    42 1
    40    22    23 1
    41    24    25 1
    42    24    29 1
    43    24    43 1
    44    25    26 1
    45    25    44 1
    46    25    45 1
    47    26    27 1
    48    26    28 1
    49    27    46 1
    50    27    47 1
    51    27    48 1
    52    28    49 1
    53    28    50 1
    54    28    51 1
    55    29    52 1
@<TRIPOS>SUBSTRUCTURE
     1 FCP         1 TEMP              0 ****  ****    0 ROOT
