@<TRIPOS>MOLECULE
molecule
   16    16     1     0     0
SMALL
bcc


@<TRIPOS>ATOM
      1 C1           0.0000     0.0000     0.0000 ca         1 FCR      -0.191300
      2 C2           1.3820     0.0000     0.0000 ca         1 FCR      -0.068000
      3 C3           2.0730     0.0000     1.1970 ca         1 FCR      -0.159000
      4 C4           1.3790     0.0010     2.3970 ca         1 FCR       0.135100
      5 C5          -0.0080    -0.0050     2.3940 ca         1 FCR      -0.159000
      6 C6          -0.6950     0.0010     1.1950 ca         1 FCR      -0.068000
      7 C7          -0.7510    -0.0020    -1.3060 c3         1 FCR       0.675200
      8 O4           2.0560     0.0020     3.5750 oh         1 FCR      -0.520100
      9 F1          -2.1270    -0.0020    -1.0530 f          1 FCR      -0.223633
     10 F2          -0.4130     1.1400    -2.0390 f          1 FCR      -0.223633
     11 F3          -0.4130    -1.1440    -2.0390 f          1 FCR      -0.223633
     12 H2           1.9240    -0.0010    -0.9380 ha         1 FCR       0.150500
     13 H3           3.1560     0.0020     1.1980 ha         1 FCR       0.149000
     14 H5          -0.5520    -0.0040     3.3300 ha         1 FCR       0.149000
     15 H6          -1.7780    -0.0010     1.1910 ha         1 FCR       0.150500
     16 H4           2.2110     0.8910     3.8480 ho         1 FCR       0.426000
@<TRIPOS>BOND
     1     1     2 ar
     2     1     6 ar
     3     1     7 1
     4     2     3 ar
     5     2    12 1
     6     3     4 ar
     7     3    13 1
     8     4     5 ar
     9     4     8 1
    10     5     6 ar
    11     5    14 1
    12     6    15 1
    13     7     9 1
    14     7    10 1
    15     7    11 1
    16     8    16 1
@<TRIPOS>SUBSTRUCTURE
     1 FCR         1 TEMP              0 ****  ****    0 ROOT
