@<TRIPOS>MOLECULE
FCR
   16    16     1     0     0
SMALL
bcc


@<TRIPOS>ATOM
      1 C1          0.0460    0.0020   -0.0090 ca        1 FCR     -0.209300
      2 C2          1.4280   -0.2120    0.0080 ca        1 FCR     -0.043500
      3 C3          2.1290   -0.1570    1.2060 ca        1 FCR     -0.192500
      4 C4          1.4280    0.1170    2.3950 ca        1 FCR      0.156100
      5 C5          0.0410    0.3310    2.3820 ca        1 FCR     -0.192500
      6 C6         -0.6460    0.2720    1.1730 ca        1 FCR     -0.043500
      7 C7         -0.7070   -0.0430   -1.3300 c3        1 FCR      0.692200
      8 O4          2.1730    0.1600    3.5460 oh        1 FCR     -0.489100
      9 F1         -2.0180   -0.4450   -1.2290 f         1 FCR     -0.238300
     10 F2         -0.7800    1.1660   -1.9800 f         1 FCR     -0.238300
     11 F3         -0.1680   -0.8910   -2.2680 f         1 FCR     -0.238300
     12 H2          1.9590   -0.4300   -0.9330 ha        1 FCR      0.153500
     13 H3          3.2150   -0.3230    1.2410 ha        1 FCR      0.152500
     14 H5         -0.4980    0.5430    3.3170 ha        1 FCR      0.152500
     15 H6         -1.7360    0.4330    1.1470 ha        1 FCR      0.153500
     16 H4          1.5790    0.3550    4.2860 ho        1 FCR      0.426000
@<TRIPOS>BOND
     1    1    2 ar  
     2    1    6 ar  
     3    1    7 1   
     4    2    3 ar  
     5    2   12 1   
     6    3    4 ar  
     7    3   13 1   
     8    4    5 ar  
     9    4    8 1   
    10    5    6 ar  
    11    5   14 1   
    12    6   15 1   
    13    7    9 1   
    14    7   10 1   
    15    7   11 1   
    16    8   16 1   
@<TRIPOS>SUBSTRUCTURE
     1 FCR         1 TEMP              0 ****  ****    0 ROOT
