@<TRIPOS>MOLECULE
FCS
   53    55     1     0     0
SMALL
bcc


@<TRIPOS>ATOM
      1 N2           0.0000     0.0000     0.0000 nb         1 FCS      -0.688000
      2 C3           0.0140     0.0020     2.3320 ca         1 FCS      -0.400000
      3 C4           1.4130     0.0000     2.3010 ca         1 FCS       0.546200
      4 C5           0.0410     0.3710     4.6680 c          1 FCS       0.617500
      5 C6           1.4860     0.7780     4.5320 c3         1 FCS       0.040500
      6 C8          -2.9050     0.8360     3.4830 c1         1 FCS      -0.207100
      7 C9          -3.5750     1.7860     3.3250 c1         1 FCS      -0.078500
      8 C11          4.3480     0.1950     4.5110 c3         1 FCS      -0.037400
      9 C12          5.7920     0.6360     4.2620 c3         1 FCS      -0.050700
     10 C15          1.5610     2.2640     4.1740 c3         1 FCS      -0.033100
     11 C16          1.2790     0.1110    -2.4110 ca         1 FCS       0.042600
     12 C17          0.1180     0.8710    -2.4570 ca         1 FCS      -0.159000
     13 C18         -0.5880     0.9840    -3.6420 ca         1 FCS       0.119400
     14 C19         -0.1340     0.3390    -4.7850 ca         1 FCS       0.044100
     15 C20          1.0260    -0.4210    -4.7380 ca         1 FCS       0.119400
     16 C21          1.7320    -0.5350    -3.5530 ca         1 FCS      -0.159000
     17 N1           2.0270     0.0000     1.1230 nb         1 FCS      -0.703000
     18 C1           1.3240     0.0000     0.0000 ca         1 FCS       0.707900
     19 C2          -0.6830     0.0010     1.1390 ca         1 FCS       0.473200
     20 N3          -0.6540     0.0100     3.5660 n          1 FCS       0.034000
     21 N4           2.1370    -0.0080     3.4790 nh         1 FCS      -0.431300
     22 O1          -0.4930     0.3670     5.7580 o          1 FCS      -0.649500
     23 C13          5.8340     2.1510     4.0510 c3         1 FCS       0.002900
     24 C14          6.6540     0.2650     5.4720 c3         1 FCS       0.002900
     25 N5           1.9950     0.0010    -1.2130 nu         1 FCS      -0.287300
     26 F1           1.4670    -1.0490    -5.8490 f          1 FCS      -0.116900
     27 F2          -1.7180     1.7240    -3.6870 f          1 FCS      -0.116900
     28 O2          -0.8290     0.4500    -5.9490 oh         1 FCS      -0.472100
     29 H1           1.9950     0.6050     5.4720 h1         1 FCS       0.079700
     30 H2          -2.2630    -0.8010     4.6280 h1         1 FCS       0.045200
     31 H3          -2.3030    -1.0830     2.8820 h1         1 FCS       0.045200
     32 H4          -4.1880     2.6640     3.1620 ha         1 FCS       0.140500
     33 H5           3.5090     1.5130     3.0350 h1         1 FCS       0.041700
     34 H6           3.9430    -0.0870     2.4190 h1         1 FCS       0.041700
     35 H7           3.9360     0.7570     5.3400 hc         1 FCS       0.025700
     36 H8           4.3290    -0.8620     4.7460 hc         1 FCS       0.025700
     37 H9           6.1750     0.1380     3.3790 hc         1 FCS       0.028700
     38 H10          2.4010     2.7170     4.6860 hc         1 FCS       0.022033
     39 H11          0.6440     2.7560     4.4780 hc         1 FCS       0.022033
     40 H12          1.6900     2.3720     3.1030 hc         1 FCS       0.022033
     41 H13         -0.2360     1.3740    -1.5650 ha         1 FCS       0.141500
     42 H14          2.6380    -1.1270    -3.5170 ha         1 FCS       0.141500
     43 H15         -1.7660     0.0010     1.1320 h4         1 FCS       0.002100
     44 H16          5.1650     2.6320     4.7550 hc         1 FCS       0.004200
     45 H17          5.5220     2.3830     3.0400 hc         1 FCS       0.004200
     46 H18          6.8430     2.5100     4.2090 hc         1 FCS       0.004200
     47 H19          6.2830     0.7790     6.3500 hc         1 FCS       0.004200
     48 H20          6.6090    -0.8050     5.6330 hc         1 FCS       0.004200
     49 H21          7.6800     0.5600     5.2880 hc         1 FCS       0.004200
     50 H22          2.9930    -0.0790    -1.2330 hn         1 FCS       0.296800
     51 H23         -0.5190     1.2000    -6.4300 ho         1 FCS       0.404000
     52 C7          -2.0680    -0.3630     3.6570 c3         1 FCS       0.171100
     53 C10          3.5140     0.4520     3.2540 c3         1 FCS       0.115800
@<TRIPOS>BOND
     1     1    18 ar  
     2     1    19 ar  
     3     2     3 ar  
     4     2    19 ar  
     5     2    20 1   
     6     3    17 ar  
     7     3    21 1   
     8     4     5 1   
     9     4    20 1   
    10     4    22 2   
    11     5    10 1   
    12     5    21 1   
    13     5    29 1   
    14     6     7 3   
    15     6    52 1   
    16     7    32 1   
    17     8     9 1   
    18     8    35 1   
    19     8    36 1   
    20     8    53 1   
    21     9    23 1   
    22     9    24 1   
    23     9    37 1   
    24    10    38 1   
    25    10    39 1   
    26    10    40 1   
    27    11    12 ar  
    28    11    16 ar  
    29    11    25 1   
    30    12    13 ar  
    31    12    41 1   
    32    13    14 ar  
    33    13    27 1   
    34    14    15 ar  
    35    14    28 1   
    36    15    16 ar  
    37    15    26 1   
    38    16    42 1   
    39    17    18 ar  
    40    18    25 1   
    41    19    43 1   
    42    20    52 1   
    43    21    53 1   
    44    23    44 1   
    45    23    45 1   
    46    23    46 1   
    47    24    47 1   
    48    24    48 1   
    49    24    49 1   
    50    25    50 1   
    51    28    51 1   
    52    30    52 1   
    53    31    52 1   
    54    33    53 1   
    55    34    53 1   
@<TRIPOS>SUBSTRUCTURE
     1 FCS         1 TEMP              0 ****  ****    0 ROOT
