@<TRIPOS>MOLECULE
molecule
   53    55     1     0     0
SMALL
bcc


@<TRIPOS>ATOM
      1 N2           0.0000     0.0000     0.0000 nb         1 FCS      -0.786000
      2 C3           0.0140     0.0020     2.3320 ca         1 FCS      -0.258000
      3 C4           1.4130     0.0000     2.3010 ca         1 FCS       0.669200
      4 C5           0.0410     0.3710     4.6680 c          1 FCS       0.709500
      5 C6           1.4860     0.7780     4.5320 c3         1 FCS       0.107500
      6 C8          -2.9050     0.8360     3.4830 c1         1 FCS      -0.183100
      7 C9          -3.5750     1.7860     3.3250 c1         1 FCS      -0.116500
      8 C11          4.3480     0.1950     4.5110 c3         1 FCS      -0.084400
      9 C12          5.7920     0.6360     4.2620 c3         1 FCS      -0.076700
     10 C15          1.5610     2.2640     4.1740 c3         1 FCS      -0.125100
     11 C16          1.2790     0.1110    -2.4110 ca         1 FCS       0.211600
     12 C17          0.1180     0.8710    -2.4570 ca         1 FCS      -0.198000
     13 C18         -0.5880     0.9840    -3.6420 ca         1 FCS       0.155900
     14 C19         -0.1340     0.3390    -4.7850 ca         1 FCS       0.004100
     15 C20          1.0260    -0.4210    -4.7380 ca         1 FCS       0.155900
     16 C21          1.7320    -0.5350    -3.5530 ca         1 FCS      -0.198000
     17 N1           2.0270     0.0000     1.1230 nb         1 FCS      -0.812000
     18 C1           1.3240     0.0000     0.0000 ca         1 FCS       0.936900
     19 C2          -0.6830     0.0010     1.1390 ca         1 FCS       0.480200
     20 N3          -0.6540     0.0100     3.5660 n          1 FCS      -0.362000
     21 N4           2.1370    -0.0080     3.4790 nh         1 FCS      -0.684300
     22 O1          -0.4930     0.3670     5.7580 o          1 FCS      -0.610500
     23 C13          5.8340     2.1510     4.0510 c3         1 FCS      -0.089600
     24 C14          6.6540     0.2650     5.4720 c3         1 FCS      -0.089600
     25 N5           1.9950     0.0010    -1.2130 nu         1 FCS      -0.753300
     26 F1           1.4670    -1.0490    -5.8490 f          1 FCS      -0.123900
     27 F2          -1.7180     1.7240    -3.6870 f          1 FCS      -0.123900
     28 O2          -0.8290     0.4500    -5.9490 oh         1 FCS      -0.494100
     29 H1           1.9950     0.6050     5.4720 h1         1 FCS       0.112700
     30 H2          -2.2630    -0.8010     4.6280 h1         1 FCS       0.083700
     31 H3          -2.3030    -1.0830     2.8820 h1         1 FCS       0.083700
     32 H4          -4.1880     2.6640     3.1620 ha         1 FCS       0.169500
     33 H5           3.5090     1.5130     3.0350 h1         1 FCS       0.063700
     34 H6           3.9430    -0.0870     2.4190 h1         1 FCS       0.063700
     35 H7           3.9360     0.7570     5.3400 hc         1 FCS       0.050700
     36 H8           4.3290    -0.8620     4.7460 hc         1 FCS       0.050700
     37 H9           6.1750     0.1380     3.3790 hc         1 FCS       0.052700
     38 H10          2.4010     2.7170     4.6860 hc         1 FCS       0.054033
     39 H11          0.6440     2.7560     4.4780 hc         1 FCS       0.054033
     40 H12          1.6900     2.3720     3.1030 hc         1 FCS       0.054033
     41 H13         -0.2360     1.3740    -1.5650 ha         1 FCS       0.166000
     42 H14          2.6380    -1.1270    -3.5170 ha         1 FCS       0.166000
     43 H15         -1.7660     0.0010     1.1320 h4         1 FCS       0.045100
     44 H16          5.1650     2.6320     4.7550 hc         1 FCS       0.035533
     45 H17          5.5220     2.3830     3.0400 hc         1 FCS       0.035533
     46 H18          6.8430     2.5100     4.2090 hc         1 FCS       0.035533
     47 H19          6.2830     0.7790     6.3500 hc         1 FCS       0.035533
     48 H20          6.6090    -0.8050     5.6330 hc         1 FCS       0.035533
     49 H21          7.6800     0.5600     5.2880 hc         1 FCS       0.035533
     50 H22          2.9930    -0.0790    -1.2330 hn         1 FCS       0.471800
     51 H23         -0.5190     1.2000    -6.4300 ho         1 FCS       0.419000
     52 C7          -2.0680    -0.3630     3.6570 c3         1 FCS       0.197100
     53 C10          3.5140     0.4520     3.2540 c3         1 FCS       0.165800
@<TRIPOS>BOND
     1    24     9 1
     2    23     9 1
     3     9     8 1
     4     8    53 1
     5    27    13 1
     6    53    21 1
     7    28    14 1
     8     5    10 1
     9     5    21 1
    10     5     4 1
    11    21     3 1
    12    13    14 ar
    13    13    12 ar
    14    22     4 2
    15    14    15 ar
    16     4    20 1
    17    12    11 ar
    18     3    17 ar
    19     3     2 ar
    20    17    18 ar
    21    20     2 1
    22    20    52 1
    23    15    26 1
    24    15    16 ar
    25    11    16 ar
    26    11    25 1
    27     2    19 ar
    28    18    25 1
    29    18     1 ar
    30    52     6 1
    31    19     1 ar
    32     6     7 3
    33     5    29 1
    34    52    30 1
    35    52    31 1
    36     7    32 1
    37    53    33 1
    38    53    34 1
    39     8    35 1
    40     8    36 1
    41     9    37 1
    42    10    38 1
    43    10    39 1
    44    10    40 1
    45    12    41 1
    46    16    42 1
    47    19    43 1
    48    23    44 1
    49    23    45 1
    50    23    46 1
    51    24    47 1
    52    24    48 1
    53    24    49 1
    54    25    50 1
    55    28    51 1
@<TRIPOS>SUBSTRUCTURE
     1 FCS         1 TEMP              0 ****  ****    0 ROOT
