@<TRIPOS>MOLECULE
molecule
   40    42     1     0     0
SMALL
bcc


@<TRIPOS>ATOM
      1 C10          0.0000     0.0000     0.0000 ca         1 FCV      -0.090000
      2 C11          1.3880     0.0000     0.0000 ca         1 FCV      -0.251300
      3 C12          2.0660     0.0000     1.2050 ca         1 FCV       0.428200
      4 C21         -1.5860     1.0540    11.3820 ca         1 FCV      -0.354500
      5 C22         -1.9040     0.6970    12.6780 ca         1 FCV      -0.002000
      6 C02         -2.6510     0.0310     4.9790 ca         1 FCV       0.122900
      7 C03         -1.9220     0.0200     6.1540 ca         1 FCV      -0.140000
      8 C04         -0.5260     0.0060     6.1120 ca         1 FCV      -0.123600
      9 C05          0.1310     0.0050     4.8830 ca         1 FCV      -0.040000
     10 C06         -0.6080     0.0160     3.7040 cp         1 FCV      -0.125500
     11 C07         -2.0010     0.0280     3.7570 ca         1 FCV      -0.135000
     12 C08          0.0850     0.0140     2.3930 cp         1 FCV       0.475800
     13 C09         -0.6610     0.0070     1.2160 ca         1 FCV      -0.239300
     14 C23         -3.2280     0.6130    13.0660 ca         1 FCV      -0.160000
     15 C24         -4.2350     0.8870    12.1590 ca         1 FCV      -0.050000
     16 C25         -3.9190     1.2450    10.8620 ca         1 FCV      -0.183000
     17 C26         -2.5930     1.3340    10.4740 ca         1 FCV       0.207900
     18 F27         -2.2810     1.6850     9.2070 f          1 FCV      -0.128900
     19 N13          1.4110     0.0010     2.3490 nb         1 FCV      -0.682000
     20 N16         -0.3850    -0.0020     8.5560 ns         1 FCV      -0.399300
     21 N17          0.3540    -0.0130     9.7470 n7         1 FCV      -0.656100
     22 O15          1.4680    -0.0150     7.3300 o          1 FCV      -0.574100
     23 O19          0.2470     2.4070    10.2190 o          1 FCV      -0.607300
     24 O20          0.8770     0.7930    12.0200 o          1 FCV      -0.607300
     25 S18          0.1030     1.1610    10.8870 sy         1 FCV       1.425200
     26 H1          -0.5540    -0.0030    -0.9310 ha         1 FCV       0.140000
     27 H2           1.9340    -0.0030    -0.9350 ha         1 FCV       0.141000
     28 H3           3.1490    -0.0050     1.2090 h4         1 FCV       0.028100
     29 H4          -1.1160     0.4800    13.3900 ha         1 FCV       0.166000
     30 H5          -2.4350     0.0220     7.1080 ha         1 FCV       0.138000
     31 H6           1.2140    -0.0050     4.8450 ha         1 FCV       0.188000
     32 H7          -2.5770     0.0370     2.8390 ha         1 FCV       0.150000
     33 H8          -1.7440     0.0070     1.2530 ha         1 FCV       0.141000
     34 H9          -3.4770     0.3330    14.0830 ha         1 FCV       0.145000
     35 H10         -5.2720     0.8180    12.4650 ha         1 FCV       0.144000
     36 H11         -4.7070     1.4620    10.1520 ha         1 FCV       0.153000
     37 H12         -1.3830    -0.0570     8.5870 hn         1 FCV       0.339500
     38 H13          1.0130    -0.7460     9.9210 hn         1 FCV       0.471800
     39 F01         -4.0010     0.0380     5.0240 f          1 FCV      -0.138900
     40 C14          0.2530    -0.0040     7.3680 c          1 FCV       0.681700
@<TRIPOS>BOND
     1    15    16 ar
     2    15    14 ar
     3    16    17 ar
     4    14     5 ar
     5    17    18 1
     6    17     4 ar
     7     5     4 ar
     8    39     6 1
     9     4    25 1
    10     6     7 ar
    11     6    11 ar
    12    23    25 2
    13     7     8 ar
    14    25    24 2
    15    25    21 1
    16    11    10 ar
    17    20    21 1
    18    20    40 1
    19     8    40 1
    20     8     9 ar
    21    40    22 2
    22    10     9 ar
    23    10    12 1
    24    13    12 ar
    25    13     1 ar
    26    12    19 ar
    27     1     2 ar
    28    19     3 ar
    29     3     2 ar
    30     1    26 1
    31     2    27 1
    32     3    28 1
    33     5    29 1
    34     7    30 1
    35     9    31 1
    36    11    32 1
    37    13    33 1
    38    14    34 1
    39    15    35 1
    40    16    36 1
    41    20    37 1
    42    21    38 1
@<TRIPOS>SUBSTRUCTURE
     1 FCV         1 TEMP              0 ****  ****    0 ROOT
