@<TRIPOS>MOLECULE
FCV
   40    42     1     0     0
SMALL
bcc


@<TRIPOS>ATOM
      1 C10          0.0000     0.0000     0.0000 ca         1 FCV      -0.065000
      2 C11          1.3880     0.0000     0.0000 ca         1 FCV      -0.219300
      3 C12          2.0660     0.0000     1.2050 ca         1 FCV       0.409200
      4 C21         -1.5860     1.0540    11.3820 ca         1 FCV      -0.198500
      5 C22         -1.9040     0.6970    12.6780 ca         1 FCV       0.036000
      6 C02         -2.6510     0.0310     4.9790 ca         1 FCV       0.094900
      7 C03         -1.9220     0.0200     6.1540 ca         1 FCV      -0.114000
      8 C04         -0.5260     0.0060     6.1120 ca         1 FCV      -0.132600
      9 C05          0.1310     0.0050     4.8830 ca         1 FCV      -0.011000
     10 C06         -0.6080     0.0160     3.7040 cp         1 FCV      -0.133500
     11 C07         -2.0010     0.0280     3.7570 ca         1 FCV      -0.110000
     12 C08          0.0850     0.0140     2.3930 cp         1 FCV       0.430800
     13 C09         -0.6610     0.0070     1.2160 ca         1 FCV      -0.214300
     14 C23         -3.2280     0.6130    13.0660 ca         1 FCV      -0.138000
     15 C24         -4.2350     0.8870    12.1590 ca         1 FCV      -0.019000
     16 C25         -3.9190     1.2450    10.8620 ca         1 FCV      -0.156000
     17 C26         -2.5930     1.3340    10.4740 ca         1 FCV       0.186900
     18 F27         -2.2810     1.6850     9.2070 f          1 FCV      -0.118900
     19 N13          1.4110     0.0010     2.3490 nb         1 FCV      -0.564000
     20 N16         -0.3850    -0.0020     8.5560 ns         1 FCV      -0.081300
     21 N17          0.3540    -0.0130     9.7470 n7         1 FCV      -0.418100
     22 O15          1.4680    -0.0150     7.3300 o          1 FCV      -0.622100
     23 O19          0.2470     2.4070    10.2190 o          1 FCV      -0.561800
     24 O20          0.8770     0.7930    12.0200 o          1 FCV      -0.561800
     25 S18          0.1030     1.1610    10.8870 sy         1 FCV       1.049200
     26 H1          -0.5540    -0.0030    -0.9310 ha         1 FCV       0.109000
     27 H2           1.9340    -0.0030    -0.9350 ha         1 FCV       0.114000
     28 H3           3.1490    -0.0050     1.2090 h4         1 FCV      -0.016900
     29 H4          -1.1160     0.4800    13.3900 ha         1 FCV       0.135000
     30 H5          -2.4350     0.0220     7.1080 ha         1 FCV       0.115000
     31 H6           1.2140    -0.0050     4.8450 ha         1 FCV       0.154000
     32 H7          -2.5770     0.0370     2.8390 ha         1 FCV       0.125000
     33 H8          -1.7440     0.0070     1.2530 ha         1 FCV       0.120000
     34 H9          -3.4770     0.3330    14.0830 ha         1 FCV       0.116000
     35 H10         -5.2720     0.8180    12.4650 ha         1 FCV       0.109000
     36 H11         -4.7070     1.4620    10.1520 ha         1 FCV       0.126000
     37 H12         -1.3830    -0.0570     8.5870 hn         1 FCV       0.190500
     38 H13          1.0130    -0.7460     9.9210 hn         1 FCV       0.364800
     39 F01         -4.0010     0.0380     5.0240 f          1 FCV      -0.128900
     40 C14          0.2530    -0.0040     7.3680 c          1 FCV       0.599700
@<TRIPOS>BOND
     1     1     2 ar  
     2     1    13 ar  
     3     1    26 1   
     4     2     3 ar  
     5     2    27 1   
     6     3    19 ar  
     7     3    28 1   
     8     4     5 ar  
     9     4    17 ar  
    10     4    25 1   
    11     5    14 ar  
    12     5    29 1   
    13     6     7 ar  
    14     6    11 ar  
    15     6    39 1   
    16     7     8 ar  
    17     7    30 1   
    18     8     9 ar  
    19     8    40 1   
    20     9    10 ar  
    21     9    31 1   
    22    10    11 ar  
    23    10    12 1   
    24    11    32 1   
    25    12    13 ar  
    26    12    19 ar  
    27    13    33 1   
    28    14    15 ar  
    29    14    34 1   
    30    15    16 ar  
    31    15    35 1   
    32    16    17 ar  
    33    16    36 1   
    34    17    18 1   
    35    20    21 1   
    36    20    37 1   
    37    20    40 1   
    38    21    25 1   
    39    21    38 1   
    40    22    40 2   
    41    23    25 2   
    42    24    25 2   
@<TRIPOS>SUBSTRUCTURE
     1 FCV         1 TEMP              0 ****  ****    0 ROOT
