@<TRIPOS>MOLECULE
FCW
   33    35     1     0     0
SMALL
bcc


@<TRIPOS>ATOM
      1 C1           0.0000     0.0000     0.0000 ca         1 FCW      -0.071000
      2 C2           1.3790     0.0000     0.0000 ca         1 FCW      -0.114000
      3 C3           2.0800     0.0000     1.2050 ca         1 FCW      -0.107400
      4 C4           1.3660     0.0010     2.3970 ca         1 FCW      -0.148300
      5 C5          -0.0100     0.0010     2.3950 ca         1 FCW      -0.040000
      6 C6          -0.6980     0.0000     1.1940 ca         1 FCW      -0.104300
      7 C7          -2.2060     0.0000     1.1870 c3         1 FCW       0.011600
      8 C8          -2.7130     1.2490     0.4630 c3         1 FCW      -0.024400
      9 C9          -4.2420     1.2490     0.4560 c3         1 FCW      -0.023400
     10 C10         -4.7490    -0.0010    -0.2660 c3         1 FCW      -0.025400
     11 C11         -4.2430    -1.2490     0.4570 c3         1 FCW      -0.023400
     12 C12         -2.7130    -1.2490     0.4640 c3         1 FCW      -0.024400
     13 C13          2.3930     0.0010     3.5060 c3         1 FCW      -0.047100
     14 C14          3.7200    -0.0000     2.7790 c          1 FCW       0.607500
     15 O15          4.8210    -0.0000     3.2890 o          1 FCW      -0.651500
     16 N16          3.4510    -0.0010     1.4630 ns         1 FCW      -0.008100
     17 H1          -0.5390    -0.0010    -0.9400 ha         1 FCW       0.113000
     18 H2           1.9200    -0.0000    -0.9390 ha         1 FCW       0.106000
     19 H5          -0.5540     0.0010     3.3310 ha         1 FCW       0.108000
     20 H7          -2.5760     0.0010     2.2050 hc         1 FCW       0.032700
     21 H8          -2.3550     2.1330     0.9760 hc         1 FCW       0.018200
     22 H8A         -2.3480     1.2460    -0.5580 hc         1 FCW       0.018200
     23 H9          -4.6070     1.2470     1.4770 hc         1 FCW       0.013700
     24 H9A         -4.6000     2.1320    -0.0590 hc         1 FCW       0.013700
     25 H10         -4.3820    -0.0020    -1.2850 hc         1 FCW       0.013200
     26 H10A        -5.8330    -0.0010    -0.2680 hc         1 FCW       0.013200
     27 H11         -4.6000    -2.1330    -0.0570 hc         1 FCW       0.013700
     28 H11A        -4.6070    -1.2460     1.4770 hc         1 FCW       0.013700
     29 H12         -2.3560    -2.1330     0.9800 hc         1 FCW       0.018200
     30 H12A        -2.3490    -1.2470    -0.5560 hc         1 FCW       0.018200
     31 H13          2.2940    -0.8910     4.1130 hc         1 FCW       0.052700
     32 H13A         2.2950     0.8940     4.1120 hc         1 FCW       0.052700
     33 HN16         4.1530    -0.0020     0.7500 hn         1 FCW       0.175500
@<TRIPOS>BOND
     1     1     2 ar  
     2     1     6 ar  
     3     1    17 1   
     4     2     3 ar  
     5     2    18 1   
     6     3     4 ar  
     7     3    16 1   
     8     4     5 ar  
     9     4    13 1   
    10     5     6 ar  
    11     5    19 1   
    12     6     7 1   
    13     7     8 1   
    14     7    12 1   
    15     7    20 1   
    16     8     9 1   
    17     8    21 1   
    18     8    22 1   
    19     9    10 1   
    20     9    23 1   
    21     9    24 1   
    22    10    11 1   
    23    10    25 1   
    24    10    26 1   
    25    11    12 1   
    26    11    27 1   
    27    11    28 1   
    28    12    29 1   
    29    12    30 1   
    30    13    14 1   
    31    13    31 1   
    32    13    32 1   
    33    14    15 2   
    34    14    16 1   
    35    16    33 1   
@<TRIPOS>SUBSTRUCTURE
     1 FCW         1 TEMP              0 ****  ****    0 ROOT
