@<TRIPOS>MOLECULE
FCY
   13    12     1     0     0
SMALL
bcc


@<TRIPOS>ATOM
      1 N          -0.1110   -0.1000   -0.1860 n3        1 FCY     -0.882800
      2 CA          1.3430   -0.0260   -0.1790 c3        1 FCY      0.021500
      3 C           1.9950   -0.2580    1.2350 c         1 FCY      0.890600
      4 O           1.2430   -0.6590    2.1670 o         1 FCY     -0.836800
      5 CB          1.8920    1.2770   -0.7310 c3        1 FCY      0.052700
      6 SG          1.6280    1.3850   -2.4950 sh        1 FCY     -0.434900
      7 OXT         3.2330   -0.0470    1.3480 o         1 FCY     -0.836800
      8 H          -0.3690   -0.8810    0.3970 hn        1 FCY      0.332300
      9 HN2        -0.4780    0.7200    0.2640 hn        1 FCY      0.332300
     10 HA          1.7100   -0.8730   -0.8300 h1        1 FCY      0.060700
     11 HB1         1.4120    2.1580   -0.2450 h1        1 FCY      0.067200
     12 HB2         2.9900    1.3030   -0.5120 h1        1 FCY      0.067200
     13 HG          2.5930    2.2340   -2.7850 hs        1 FCY      0.165800
@<TRIPOS>BOND
     1    1    2 1   
     2    1    8 1   
     3    1    9 1   
     4    2    3 1   
     5    2    5 1   
     6    2   10 1   
     7    3    4 1   
     8    3    7 1   
     9    5    6 1   
    10    5   11 1   
    11    5   12 1   
    12    6   13 1   
@<TRIPOS>SUBSTRUCTURE
     1 FCY         1 TEMP              0 ****  ****    0 ROOT
