@<TRIPOS>MOLECULE
molecule
   64    67     1     0     0
SMALL
bcc


@<TRIPOS>ATOM
      1 C65          0.0000     0.0000     0.0000 ca         1 FD1      -0.050300
      2 C66          1.3800     0.0000     0.0000 ca         1 FD1      -0.029000
      3 C64         -0.6930     0.0130     1.1960 ca         1 FD1      -0.064000
      4 C63         -0.0100     0.0200     2.3990 ca         1 FD1      -0.104000
      5 C62          1.3690     0.0130     2.4110 ca         1 FD1      -0.140000
      6 C61          2.0750     0.0000     1.2090 ca         1 FD1      -0.194900
      7 C25          3.5550    -0.0080     1.2160 ce         1 FD1       0.547800
      8 N43          4.2380    -0.0010     2.4130 nz         1 FD1      -0.802600
      9 N54          4.2110    -0.0190     0.0920 n2         1 FD1      -0.683100
     10 C34         -0.7520    -0.0080    -1.3060 c3         1 FD1      -0.067100
     11 C31         -1.0000     1.4320    -1.7610 c3         1 FD1       0.170500
     12 C35         -1.5980     1.4260    -3.1420 c          1 FD1       0.619100
     13 O36         -0.9580     1.8460    -4.0830 o          1 FD1      -0.472100
     14 N81         -2.8450     0.9540    -3.3350 n          1 FD1      -0.462800
     15 C71         -3.5120     1.1060    -4.6350 c3         1 FD1       0.012700
     16 C72         -3.9880    -0.2770    -5.1050 c3         1 FD1      -0.080400
     17 C74         -4.0440    -1.0880    -2.7410 c3         1 FD1      -0.096400
     18 C75         -3.5680     0.2820    -2.2450 c3         1 FD1       0.084000
     19 C40         -4.8650    -0.9050    -4.0200 c3         1 FD1      -0.085400
     20 C91         -2.5410     1.6740    -5.6380 c          1 FD1       0.904600
     21 O92         -2.2220     2.9770    -5.6000 o          1 FD1      -0.829300
     22 O93         -2.0500     0.9560    -6.4760 o          1 FD1      -0.829300
     23 N29         -1.9230     2.0850    -0.8300 n7         1 FD1      -0.913100
     24 S12         -1.6040     3.6140    -0.2830 sy         1 FD1       1.426200
     25 O32         -2.7570     4.0130     0.4440 o          1 FD1      -0.664800
     26 O33         -0.2800     3.5700     0.2340 o          1 FD1      -0.664800
     27 C2          -1.5340     4.6730    -1.6890 ca         1 FD1      -0.276500
     28 C3          -2.6970     5.2980    -2.1350 ca         1 FD1      -0.063000
     29 C4          -2.6770     6.1220    -3.2190 ca         1 FD1      -0.106000
     30 C9          -0.2860     5.7130    -3.4440 ca         1 FD1      -0.047000
     31 C10         -1.4680     6.3490    -3.8980 ca         1 FD1       0.030000
     32 C1          -0.3440     4.8720    -2.3180 ca         1 FD1       0.008000
     33 C5          -1.4090     7.1930    -5.0190 ca         1 FD1      -0.111000
     34 C6          -0.2190     7.3890    -5.6520 ca         1 FD1      -0.106000
     35 C7           0.9420     6.7640    -5.2060 ca         1 FD1      -0.129000
     36 C8           0.9230     5.9390    -4.1230 ca         1 FD1      -0.096000
     37 H661         1.9230    -0.0100    -0.9380 ha         1 FD1       0.175000
     38 H641        -1.7760     0.0160     1.1910 ha         1 FD1       0.155000
     39 H631        -0.5590     0.0300     3.3320 ha         1 FD1       0.149000
     40 H621         1.9030     0.0160     3.3540 ha         1 FD1       0.093000
     41 H431         5.2230    -0.0080     2.2340 hn         1 FD1       0.461133
     42 H432         4.0000     0.8240     2.9280 hn         1 FD1       0.461133
     43 H541         5.2120    -0.0230     0.0930 hn         1 FD1       0.424400
     44 H341        -1.7010    -0.5130    -1.1740 hc         1 FD1       0.083700
     45 H342        -0.1670    -0.5270    -2.0560 hc         1 FD1       0.083700
     46 H311        -0.0610     1.9720    -1.7760 h1         1 FD1       0.092700
     47 H711        -4.3640     1.7670    -4.5310 h1         1 FD1       0.045700
     48 H721        -3.1290    -0.9120    -5.2860 hc         1 FD1       0.060700
     49 H722        -4.5640    -0.1700    -6.0170 hc         1 FD1       0.060700
     50 H741        -3.1860    -1.7140    -2.9500 hc         1 FD1       0.032200
     51 H742        -4.6610    -1.5510    -1.9800 hc         1 FD1       0.032200
     52 H751        -4.4230     0.8800    -1.9550 h1         1 FD1       0.030200
     53 H752        -2.9050     0.1500    -1.3990 h1         1 FD1       0.030200
     54 H401        -5.2220    -1.8700    -4.3590 hc         1 FD1       0.031700
     55 H402        -5.7070    -0.2540    -3.8170 hc         1 FD1       0.031700
     56 H291        -2.7390     1.6000    -0.5130 hn         1 FD1       0.454800
     57 H31         -3.6160     5.5140    -1.6050 ha         1 FD1       0.145000
     58 H41         -3.5790     6.6900    -3.4140 ha         1 FD1       0.130000
     59 H11          0.5990     4.9140    -1.7870 ha         1 FD1       0.139000
     60 H51         -2.3040     7.6850    -5.3780 ha         1 FD1       0.133000
     61 H61         -0.1760     8.0410    -6.5170 ha         1 FD1       0.124000
     62 H71          1.8760     6.9370    -5.7280 ha         1 FD1       0.121000
     63 H81          1.8340     5.4600    -3.7870 ha         1 FD1       0.123000
     64 H433         3.9780    -0.8040     2.9500 hn         1 FD1       0.461133
@<TRIPOS>BOND
     1     1     2 ar
     2     1     3 ar
     3     1    10 1
     4     2     6 ar
     5     2    37 1
     6     3     4 ar
     7     3    38 1
     8     4     5 ar
     9     4    39 1
    10     5     6 ar
    11     5    40 1
    12     6     7 1
    13     7     8 1
    14     7     9 2
    15     8    41 1
    16     8    42 1
    17     9    43 1
    18    10    11 1
    19    10    44 1
    20    10    45 1
    21    11    12 1
    22    11    23 1
    23    11    46 1
    24    12    13 2
    25    12    14 1
    26    14    15 1
    27    14    18 1
    28    15    16 1
    29    15    20 1
    30    15    47 1
    31    16    19 1
    32    16    48 1
    33    16    49 1
    34    17    18 1
    35    17    19 1
    36    17    50 1
    37    17    51 1
    38    18    52 1
    39    18    53 1
    40    19    54 1
    41    19    55 1
    42    20    21 1
    43    20    22 1
    44    23    24 1
    45    23    56 1
    46    24    25 2
    47    24    26 2
    48    24    27 1
    49    27    28 ar
    50    27    32 ar
    51    28    29 ar
    52    28    57 1
    53    29    31 ar
    54    29    58 1
    55    30    31 ar
    56    30    32 ar
    57    30    36 ar
    58    31    33 ar
    59    32    59 1
    60    33    34 ar
    61    33    60 1
    62    34    35 ar
    63    34    61 1
    64    35    36 ar
    65    35    62 1
    66    36    63 1
    67    64     8 1
@<TRIPOS>SUBSTRUCTURE
     1 FD1         1 TEMP              0 ****  ****    0 ROOT
