@<TRIPOS>MOLECULE
FD1
   64    67     1     0     0
SMALL
bcc


@<TRIPOS>ATOM
      1 C65          0.0000     0.0000     0.0000 ca         1 FD1      -0.033300
      2 C66          1.3800     0.0000     0.0000 ca         1 FD1      -0.037000
      3 C64         -0.6930     0.0130     1.1960 ca         1 FD1      -0.033000
      4 C63         -0.0100     0.0200     2.3990 ca         1 FD1      -0.061000
      5 C62          1.3690     0.0130     2.4110 ca         1 FD1      -0.109000
      6 C61          2.0750     0.0000     1.2090 ca         1 FD1      -0.229900
      7 C25          3.5550    -0.0080     1.2160 ce         1 FD1       0.218800
      8 N43          4.2380    -0.0010     2.4130 nz         1 FD1       0.189400
      9 N54          4.2110    -0.0190     0.0920 n2         1 FD1      -0.508100
     10 C34         -0.7520    -0.0080    -1.3060 c3         1 FD1      -0.024100
     11 C31         -1.0000     1.4320    -1.7610 c3         1 FD1       0.126500
     12 C35         -1.5980     1.4260    -3.1420 c          1 FD1       0.515100
     13 O36         -0.9580     1.8460    -4.0830 o          1 FD1      -0.497100
     14 N81         -2.8450     0.9540    -3.3350 n          1 FD1      -0.118800
     15 C71         -3.5120     1.1060    -4.6350 c3         1 FD1      -0.077300
     16 C72         -3.9880    -0.2770    -5.1050 c3         1 FD1      -0.032400
     17 C74         -4.0440    -1.0880    -2.7410 c3         1 FD1      -0.038400
     18 C75         -3.5680     0.2820    -2.2450 c3         1 FD1       0.005000
     19 C40         -4.8650    -0.9050    -4.0200 c3         1 FD1      -0.032400
     20 C91         -2.5410     1.6740    -5.6380 c          1 FD1       0.992600
     21 O92         -2.2220     2.9770    -5.6000 o          1 FD1      -0.877800
     22 O93         -2.0500     0.9560    -6.4760 o          1 FD1      -0.877800
     23 N29         -1.9230     2.0850    -0.8300 n7         1 FD1      -0.597100
     24 S12         -1.6040     3.6140    -0.2830 sy         1 FD1       1.036200
     25 O32         -2.7570     4.0130     0.4440 o          1 FD1      -0.613800
     26 O33         -0.2800     3.5700     0.2340 o          1 FD1      -0.613800
     27 C2          -1.5340     4.6730    -1.6890 ca         1 FD1      -0.115500
     28 C3          -2.6970     5.2980    -2.1350 ca         1 FD1      -0.038000
     29 C4          -2.6770     6.1220    -3.2190 ca         1 FD1      -0.082000
     30 C9          -0.2860     5.7130    -3.4440 ca         1 FD1      -0.056000
     31 C10         -1.4680     6.3490    -3.8980 ca         1 FD1       0.030000
     32 C1          -0.3440     4.8720    -2.3180 ca         1 FD1       0.039000
     33 C5          -1.4090     7.1930    -5.0190 ca         1 FD1      -0.081000
     34 C6          -0.2190     7.3890    -5.6520 ca         1 FD1      -0.079000
     35 C7           0.9420     6.7640    -5.2060 ca         1 FD1      -0.102000
     36 C8           0.9230     5.9390    -4.1230 ca         1 FD1      -0.066000
     37 H661         1.9230    -0.0100    -0.9380 ha         1 FD1       0.117000
     38 H641        -1.7760     0.0160     1.1910 ha         1 FD1       0.123000
     39 H631        -0.5590     0.0300     3.3320 ha         1 FD1       0.117000
     40 H621         1.9030     0.0160     3.3540 ha         1 FD1       0.074000
     41 H431         5.2230    -0.0070     2.2340 hn         1 FD1       0.217800
     42 H432         3.9900    -0.8120     2.9430 hn         1 FD1       0.217800
     43 H541         3.7160    -0.0230    -0.7780 hn         1 FD1       0.389400
     44 H341        -0.1680    -0.5270    -2.0560 hc         1 FD1       0.053200
     45 H342        -1.7010    -0.5130    -1.1740 hc         1 FD1       0.053200
     46 H311        -0.0610     1.9720    -1.7760 h1         1 FD1       0.060700
     47 H711        -4.3640     1.7670    -4.5310 h1         1 FD1       0.026700
     48 H721        -4.5640    -0.1700    -6.0170 hc         1 FD1       0.034700
     49 H722        -3.1290    -0.9120    -5.2860 hc         1 FD1       0.034700
     50 H741        -4.6610    -1.5510    -1.9800 hc         1 FD1       0.005700
     51 H742        -3.1860    -1.7140    -2.9500 hc         1 FD1       0.005700
     52 H751        -4.4230     0.8800    -1.9550 h1         1 FD1       0.018200
     53 H752        -2.9050     0.1500    -1.3990 h1         1 FD1       0.018200
     54 H401        -5.7070    -0.2540    -3.8170 hc         1 FD1       0.007200
     55 H402        -5.2220    -1.8700    -4.3590 hc         1 FD1       0.007200
     56 H291        -2.7390     1.6000    -0.5120 hn         1 FD1       0.358800
     57 H31         -3.6160     5.5140    -1.6040 ha         1 FD1       0.118000
     58 H41         -3.5790     6.6900    -3.4140 ha         1 FD1       0.103000
     59 H11          0.5990     4.9160    -1.7860 ha         1 FD1       0.111000
     60 H51         -2.3040     7.6850    -5.3780 ha         1 FD1       0.105000
     61 H61         -0.1760     8.0410    -6.5170 ha         1 FD1       0.095000
     62 H71          1.8760     6.9370    -5.7270 ha         1 FD1       0.094000
     63 H81          1.8340     5.4600    -3.7870 ha         1 FD1       0.094000
     64 H433         4.0100     0.8300     2.9220 hn         1 FD1       0.217800
@<TRIPOS>BOND
     1     1     2 ar  
     2     1     3 ar  
     3     1    10 1   
     4     2     6 ar  
     5     2    37 1   
     6     3     4 ar  
     7     3    38 1   
     8     4     5 ar  
     9     4    39 1   
    10     5     6 ar  
    11     5    40 1   
    12     6     7 1   
    13     7     8 1   
    14     7     9 2   
    15     8    41 1   
    16     8    42 1   
    17     8    64 1   
    18     9    43 1   
    19    10    11 1   
    20    10    44 1   
    21    10    45 1   
    22    11    12 1   
    23    11    23 1   
    24    11    46 1   
    25    12    13 2   
    26    12    14 1   
    27    14    15 1   
    28    14    18 1   
    29    15    16 1   
    30    15    20 1   
    31    15    47 1   
    32    16    19 1   
    33    16    48 1   
    34    16    49 1   
    35    17    18 1   
    36    17    19 1   
    37    17    50 1   
    38    17    51 1   
    39    18    52 1   
    40    18    53 1   
    41    19    54 1   
    42    19    55 1   
    43    20    21 1   
    44    20    22 1   
    45    23    24 1   
    46    23    56 1   
    47    24    25 2   
    48    24    26 2   
    49    24    27 1   
    50    27    28 ar  
    51    27    32 ar  
    52    28    29 ar  
    53    28    57 1   
    54    29    31 ar  
    55    29    58 1   
    56    30    31 ar  
    57    30    32 ar  
    58    30    36 ar  
    59    31    33 ar  
    60    32    59 1   
    61    33    34 ar  
    62    33    60 1   
    63    34    35 ar  
    64    34    61 1   
    65    35    36 ar  
    66    35    62 1   
    67    36    63 1   
@<TRIPOS>SUBSTRUCTURE
     1 FD1         1 TEMP              0 ****  ****    0 ROOT
