@<TRIPOS>MOLECULE
FD2
   68    71     1     0     0
SMALL
bcc


@<TRIPOS>ATOM
      1 C65          0.0000     0.0000     0.0000 ca         1 FD2      -0.053300
      2 C66          1.3790     0.0000     0.0000 ca         1 FD2      -0.047000
      3 C64         -0.6950    -0.0110     1.1970 ca         1 FD2      -0.018000
      4 C63         -0.0120    -0.0170     2.3990 ca         1 FD2      -0.048000
      5 C62          1.3680    -0.0120     2.4120 ca         1 FD2      -0.087000
      6 C61          2.0730     0.0000     1.2090 ca         1 FD2      -0.221900
      7 C25          3.5540     0.0070     1.2160 ce         1 FD2       0.224800
      8 N43          4.2380     0.0020     2.4120 nz         1 FD2       0.189400
      9 N54          4.2100     0.0180     0.0910 n2         1 FD2      -0.507100
     10 C34         -0.7530     0.0070    -1.3060 c3         1 FD2       0.010900
     11 C31         -1.0140     1.4510    -1.7380 c3         1 FD2       0.126500
     12 C35         -1.6460     1.4600    -3.1040 c          1 FD2       0.566100
     13 O36         -2.8480     1.5800    -3.2150 o          1 FD2      -0.620100
     14 N81         -0.8780     1.3340    -4.2040 n          1 FD2      -0.150800
     15 C71          0.5770     1.1580    -4.0850 c3         1 FD2       0.045000
     16 C72          1.2720     2.2250    -4.9350 c3         1 FD2      -0.037400
     17 C74         -0.7570     2.4360    -6.3780 c3         1 FD2      -0.037400
     18 C75         -1.4780     1.3710    -5.5440 c3         1 FD2       0.045000
     19 C40          0.7470     2.1530    -6.3700 c3         1 FD2      -0.093700
     20 C48          1.4550     3.1780    -7.2170 c          1 FD2       0.705100
     21 O49          2.2930     3.8940    -6.7230 o          1 FD2      -0.589000
     22 O55          1.1540     3.2980    -8.5200 os         1 FD2      -0.419900
     23 C99          1.8360     4.2850    -9.3360 c3         1 FD2       0.279700
     24 N29         -1.9130     2.0920    -0.7770 n7         1 FD2      -0.562100
     25 S12         -1.4190     3.4370     0.0510 sy         1 FD2       1.041200
     26 O32         -2.5650     3.9030     0.7510 o          1 FD2      -0.593300
     27 O33         -0.1780     3.0880     0.6470 o          1 FD2      -0.593300
     28 C2          -1.0460     4.6810    -1.1390 ca         1 FD2      -0.155500
     29 C3          -2.0480     5.5570    -1.5520 ca         1 FD2      -0.020000
     30 C4          -1.7930     6.5300    -2.4690 ca         1 FD2      -0.092000
     31 C9           0.5170     5.7640    -2.5890 ca         1 FD2      -0.074000
     32 C10         -0.5020     6.6550    -3.0100 ca         1 FD2       0.002000
     33 C1           0.2170     4.7750    -1.6350 ca         1 FD2       0.006000
     34 C5          -0.2010     7.6470    -3.9580 ca         1 FD2      -0.096000
     35 C6           1.0620     7.7370    -4.4590 ca         1 FD2      -0.071000
     36 C7           2.0630     6.8610    -4.0450 ca         1 FD2      -0.083000
     37 C8           1.8080     5.8890    -3.1290 ca         1 FD2      -0.086000
     38 H661         1.9210     0.0090    -0.9380 ha         1 FD2       0.104000
     39 H641        -1.7780    -0.0130     1.1920 ha         1 FD2       0.125000
     40 H631        -0.5610    -0.0260     3.3320 ha         1 FD2       0.124000
     41 H621         1.9020    -0.0140     3.3540 ha         1 FD2       0.081000
     42 H431         5.2220     0.0070     2.2340 hn         1 FD2       0.221800
     43 H432         3.9970    -0.8200     2.9300 hn         1 FD2       0.221800
     44 H541         3.7150     0.0210    -0.7790 hn         1 FD2       0.378400
     45 H341        -1.6970    -0.5090    -1.1800 hc         1 FD2       0.038700
     46 H342        -0.1650    -0.4960    -2.0640 hc         1 FD2       0.038700
     47 H311        -0.0760     1.9930    -1.7700 h1         1 FD2       0.049700
     48 H711         0.8720     1.2710    -3.0490 h1         1 FD2       0.031200
     49 H712         0.8530     0.1730    -4.4420 h1         1 FD2       0.031200
     50 H721         2.3410     2.0460    -4.9330 hc         1 FD2       0.038700
     51 H722         1.0640     3.2050    -4.5230 hc         1 FD2       0.038700
     52 H741        -1.1240     2.4050    -7.3970 hc         1 FD2       0.038700
     53 H742        -0.9420     3.4140    -5.9500 hc         1 FD2       0.038700
     54 H751        -1.3650     0.4030    -6.0180 h1         1 FD2       0.031200
     55 H752        -2.5280     1.6230    -5.4650 h1         1 FD2       0.031200
     56 H401         0.9270     1.1620    -6.7690 hc         1 FD2       0.049700
     57 H991         1.4960     4.2030   -10.3610 h1         1 FD2       0.003367
     58 H992         1.6160     5.2770    -8.9610 h1         1 FD2       0.003367
     59 H993         2.9040     4.1120    -9.2950 h1         1 FD2       0.003367
     60 H291        -2.8350     1.7280    -0.6360 hn         1 FD2       0.371800
     61 H31         -3.0430     5.4640    -1.1350 ha         1 FD2       0.130000
     62 H41         -2.5810     7.2040    -2.7810 ha         1 FD2       0.118000
     63 H11          1.0120     4.1760    -1.2080 ha         1 FD2       0.113000
     64 H51         -0.9690     8.3350    -4.2890 ha         1 FD2       0.116000
     65 H61          1.2920     8.5030    -5.1910 ha         1 FD2       0.109000
     66 H71          3.0590     6.9550    -4.4600 ha         1 FD2       0.110000
     67 H81          2.5960     5.2150    -2.8160 ha         1 FD2       0.101000
     68 H433         4.0020     0.8220     2.9350 hn         1 FD2       0.221800
@<TRIPOS>BOND
     1     1     2 ar  
     2     1     3 ar  
     3     1    10 1   
     4     2     6 ar  
     5     2    38 1   
     6     3     4 ar  
     7     3    39 1   
     8     4     5 ar  
     9     4    40 1   
    10     5     6 ar  
    11     5    41 1   
    12     6     7 1   
    13     7     8 1   
    14     7     9 2   
    15     8    42 1   
    16     8    43 1   
    17     8    68 1   
    18     9    44 1   
    19    10    11 1   
    20    10    45 1   
    21    10    46 1   
    22    11    12 1   
    23    11    24 1   
    24    11    47 1   
    25    12    13 2   
    26    12    14 1   
    27    14    15 1   
    28    14    18 1   
    29    15    16 1   
    30    15    48 1   
    31    15    49 1   
    32    16    19 1   
    33    16    50 1   
    34    16    51 1   
    35    17    18 1   
    36    17    19 1   
    37    17    52 1   
    38    17    53 1   
    39    18    54 1   
    40    18    55 1   
    41    19    20 1   
    42    19    56 1   
    43    20    21 2   
    44    20    22 1   
    45    22    23 1   
    46    23    57 1   
    47    23    58 1   
    48    23    59 1   
    49    24    25 1   
    50    24    60 1   
    51    25    26 2   
    52    25    27 2   
    53    25    28 1   
    54    28    29 ar  
    55    28    33 ar  
    56    29    30 ar  
    57    29    61 1   
    58    30    32 ar  
    59    30    62 1   
    60    31    32 ar  
    61    31    33 ar  
    62    31    37 ar  
    63    32    34 ar  
    64    33    63 1   
    65    34    35 ar  
    66    34    64 1   
    67    35    36 ar  
    68    35    65 1   
    69    36    37 ar  
    70    36    66 1   
    71    37    67 1   
@<TRIPOS>SUBSTRUCTURE
     1 FD2         1 TEMP              0 ****  ****    0 ROOT
