@<TRIPOS>MOLECULE
molecule
   61    64     1     0     0
SMALL
bcc


@<TRIPOS>ATOM
      1 C65          0.0000     0.0000     0.0000 ca         1 FD3      -0.065300
      2 C66          1.3780     0.0000     0.0000 ca         1 FD3      -0.031000
      3 C64         -0.6940     0.0150     1.1960 ca         1 FD3      -0.058000
      4 C63         -0.0100     0.0220     2.3990 ca         1 FD3      -0.100000
      5 C62          1.3690     0.0150     2.4110 ca         1 FD3      -0.123000
      6 C61          2.0740     0.0000     1.2080 ca         1 FD3      -0.187900
      7 C25          3.5550    -0.0070     1.2140 ce         1 FD3       0.551800
      8 N43          4.2380    -0.0010     2.4110 nz         1 FD3      -0.802600
      9 N54          4.2100    -0.0200     0.0900 n2         1 FD3      -0.692100
     10 C34         -0.7540    -0.0090    -1.3060 c3         1 FD3      -0.045100
     11 C31         -1.0000     1.4300    -1.7610 c3         1 FD3       0.177500
     12 C35         -1.7530     1.4210    -3.0660 c          1 FD3       0.644100
     13 O36         -2.9660     1.4620    -3.0680 o          1 FD3      -0.587100
     14 N81         -1.0790     1.3670    -4.2320 n          1 FD3      -0.486800
     15 C71          0.3830     1.2030    -4.2570 c3         1 FD3       0.106500
     16 C72          0.7270     0.0790    -5.2380 c3         1 FD3       0.129300
     17 C74         -1.3030     0.3270    -6.4240 c3         1 FD3       0.129300
     18 C75         -1.7820     1.4630    -5.5210 c3         1 FD3       0.106500
     19 N40          0.1560     0.3830    -6.5550 n7         1 FD3      -0.797200
     20 N29         -1.7890     2.1340    -0.7480 n7         1 FD3      -0.893100
     21 S12         -1.2450     3.5680    -0.1240 sy         1 FD3       1.424200
     22 O32         -2.3040     4.0640     0.6830 o          1 FD3      -0.641800
     23 O33          0.0810     3.3160     0.3230 o          1 FD3      -0.641800
     24 C2          -1.0910     4.7010    -1.4630 ca         1 FD3      -0.281500
     25 C3          -2.1770     5.5020    -1.8110 ca         1 FD3      -0.068000
     26 C4          -2.0920     6.3890    -2.8410 ca         1 FD3      -0.119000
     27 C9           0.2100     5.6840    -3.2110 ca         1 FD3      -0.062000
     28 C10         -0.8940     6.5000    -3.5650 ca         1 FD3       0.001000
     29 C1           0.0870     4.7850    -2.1380 ca         1 FD3      -0.050000
     30 C5          -0.7680     7.4020    -4.6340 ca         1 FD3      -0.121000
     31 C6           0.4100     7.4830    -5.3130 ca         1 FD3      -0.103000
     32 C7           1.4950     6.6820    -4.9650 ca         1 FD3      -0.119000
     33 C8           1.4100     5.7950    -3.9350 ca         1 FD3      -0.115000
     34 H661         1.9210    -0.0120    -0.9380 ha         1 FD3       0.161000
     35 H641        -1.7770     0.0170     1.1910 ha         1 FD3       0.159000
     36 H631        -0.5590     0.0330     3.3330 ha         1 FD3       0.159000
     37 H621         1.9040     0.0180     3.3530 ha         1 FD3       0.103000
     38 H431         4.0000     0.8230     2.9270 hn         1 FD3       0.464800
     39 H432         3.9890    -0.8110     2.9420 hn         1 FD3       0.464800
     40 H541         5.2110    -0.0250     0.0930 hn         1 FD3       0.430400
     41 H341        -0.1710    -0.5300    -2.0560 hc         1 FD3       0.074700
     42 H342        -1.7030    -0.5130    -1.1710 hc         1 FD3       0.074700
     43 H311        -0.0510     1.9350    -1.8950 h1         1 FD3       0.081700
     44 H711         0.7370     0.9420    -3.2670 h1         1 FD3       0.063450
     45 H712         0.8460     2.1260    -4.5840 h1         1 FD3       0.063450
     46 H721         1.8040    -0.0050    -5.3250 h1         1 FD3       0.042700
     47 H722         0.3150    -0.8540    -4.8750 h1         1 FD3       0.042700
     48 H741        -1.7560     0.4310    -7.4030 h1         1 FD3       0.042700
     49 H742        -1.5890    -0.6230    -5.9890 h1         1 FD3       0.042700
     50 H751        -1.5590     2.4150    -5.9860 h1         1 FD3       0.063450
     51 H752        -2.8500     1.3720    -5.3590 h1         1 FD3       0.063450
     52 H401         0.4580    -0.3040    -7.2170 hn         1 FD3       0.363800
     53 H291        -2.6760     1.7680    -0.4620 hn         1 FD3       0.471800
     54 H31         -3.0720     5.7320    -1.2450 ha         1 FD3       0.163000
     55 H41         -2.9540     7.0290    -2.9840 ha         1 FD3       0.147000
     56 H11          0.9850     4.8320    -1.5340 ha         1 FD3       0.160000
     57 H51         -1.6030     8.0320    -4.9160 ha         1 FD3       0.144000
     58 H61          0.5040     8.1810    -6.1370 ha         1 FD3       0.140000
     59 H71          2.4210     6.7660    -5.5210 ha         1 FD3       0.136000
     60 H81          2.2620     5.1790    -3.6760 ha         1 FD3       0.131000
     61 H433         5.2230    -0.0260     2.2330 hn         1 FD3       0.464800
@<TRIPOS>BOND
     1     1     2 ar
     2     1     3 ar
     3     1    10 1
     4     2     6 ar
     5     2    34 1
     6     3     4 ar
     7     3    35 1
     8     4     5 ar
     9     4    36 1
    10     5     6 ar
    11     5    37 1
    12     6     7 1
    13     7     8 1
    14     7     9 2
    15     8    38 1
    16     8    39 1
    17     9    40 1
    18    10    11 1
    19    10    41 1
    20    10    42 1
    21    11    12 1
    22    11    20 1
    23    11    43 1
    24    12    13 2
    25    12    14 1
    26    14    15 1
    27    14    18 1
    28    15    16 1
    29    15    44 1
    30    15    45 1
    31    16    19 1
    32    16    46 1
    33    16    47 1
    34    17    18 1
    35    17    19 1
    36    17    48 1
    37    17    49 1
    38    18    50 1
    39    18    51 1
    40    19    52 1
    41    20    21 1
    42    20    53 1
    43    21    22 2
    44    21    23 2
    45    21    24 1
    46    24    25 ar
    47    24    29 ar
    48    25    26 ar
    49    25    54 1
    50    26    28 ar
    51    26    55 1
    52    27    28 ar
    53    27    29 ar
    54    27    33 ar
    55    28    30 ar
    56    29    56 1
    57    30    31 ar
    58    30    57 1
    59    31    32 ar
    60    31    58 1
    61    32    33 ar
    62    32    59 1
    63    33    60 1
    64    61     8 1
@<TRIPOS>SUBSTRUCTURE
     1 FD3         1 TEMP              0 ****  ****    0 ROOT
