@<TRIPOS>MOLECULE
FD3
   61    64     1     0     0
SMALL
bcc


@<TRIPOS>ATOM
      1 C65          0.0000     0.0000     0.0000 ca         1 FD3      -0.053300
      2 C66          1.3780     0.0000     0.0000 ca         1 FD3      -0.040000
      3 C64         -0.6940     0.0150     1.1960 ca         1 FD3      -0.025000
      4 C63         -0.0100     0.0220     2.3990 ca         1 FD3      -0.054000
      5 C62          1.3690     0.0150     2.4110 ca         1 FD3      -0.090000
      6 C61          2.0740     0.0000     1.2080 ca         1 FD3      -0.222900
      7 C25          3.5550    -0.0070     1.2140 ce         1 FD3       0.224800
      8 N43          4.2380    -0.0010     2.4110 nz         1 FD3       0.188400
      9 N54          4.2100    -0.0200     0.0900 n2         1 FD3      -0.504100
     10 C34         -0.7540    -0.0090    -1.3060 c3         1 FD3       0.013900
     11 C31         -1.0000     1.4300    -1.7610 c3         1 FD3       0.125500
     12 C35         -1.7530     1.4210    -3.0660 c          1 FD3       0.563100
     13 O36         -2.9660     1.4620    -3.0680 o          1 FD3      -0.625100
     14 N81         -1.0790     1.3670    -4.2320 n          1 FD3      -0.146800
     15 C71          0.3830     1.2030    -4.2570 c3         1 FD3       0.047000
     16 C72          0.7270     0.0790    -5.2380 c3         1 FD3       0.123300
     17 C74         -1.3030     0.3270    -6.4240 c3         1 FD3       0.123300
     18 C75         -1.7820     1.4630    -5.5210 c3         1 FD3       0.047000
     19 N40          0.1560     0.3830    -6.5550 n7         1 FD3      -0.564200
     20 N29         -1.7890     2.1340    -0.7480 n7         1 FD3      -0.559100
     21 S12         -1.2450     3.5680    -0.1240 sy         1 FD3       1.039200
     22 O32         -2.3040     4.0640     0.6830 o          1 FD3      -0.593800
     23 O33          0.0810     3.3160     0.3230 o          1 FD3      -0.593800
     24 C2          -1.0910     4.7010    -1.4630 ca         1 FD3      -0.116500
     25 C3          -2.1770     5.5020    -1.8110 ca         1 FD3      -0.040000
     26 C4          -2.0920     6.3890    -2.8410 ca         1 FD3      -0.093000
     27 C9           0.2100     5.6840    -3.2110 ca         1 FD3      -0.067000
     28 C10         -0.8940     6.5000    -3.5650 ca         1 FD3      -0.003000
     29 C1           0.0870     4.7850    -2.1380 ca         1 FD3      -0.037000
     30 C5          -0.7680     7.4020    -4.6340 ca         1 FD3      -0.090000
     31 C6           0.4100     7.4830    -5.3130 ca         1 FD3      -0.075000
     32 C7           1.4950     6.6820    -4.9650 ca         1 FD3      -0.089000
     33 C8           1.4100     5.7950    -3.9350 ca         1 FD3      -0.089000
     34 H661         1.9210    -0.0110    -0.9380 ha         1 FD3       0.105000
     35 H641        -1.7770     0.0170     1.1910 ha         1 FD3       0.127000
     36 H631        -0.5590     0.0330     3.3330 ha         1 FD3       0.125000
     37 H621         1.9040     0.0180     3.3530 ha         1 FD3       0.081000
     38 H431         3.9890    -0.8110     2.9420 hn         1 FD3       0.221800
     39 H432         3.9990     0.8230     2.9270 hn         1 FD3       0.221800
     40 H541         3.7150    -0.0250    -0.7800 hn         1 FD3       0.379400
     41 H341        -0.1710    -0.5300    -2.0560 hc         1 FD3       0.039200
     42 H342        -1.7030    -0.5130    -1.1710 hc         1 FD3       0.039200
     43 H311        -0.0510     1.9350    -1.8950 h1         1 FD3       0.053700
     44 H711         0.8460     2.1260    -4.5840 h1         1 FD3       0.035450
     45 H712         0.7370     0.9420    -3.2670 h1         1 FD3       0.035450
     46 H721         1.8040    -0.0050    -5.3250 h1         1 FD3       0.014950
     47 H722         0.3150    -0.8540    -4.8750 h1         1 FD3       0.014950
     48 H741        -1.5890    -0.6230    -5.9890 h1         1 FD3       0.014950
     49 H742        -1.7560     0.4310    -7.4030 h1         1 FD3       0.014950
     50 H751        -1.5590     2.4150    -5.9860 h1         1 FD3       0.035450
     51 H752        -2.8500     1.3730    -5.3590 h1         1 FD3       0.035450
     52 H401         0.4580    -0.3050    -7.2170 hn         1 FD3       0.264800
     53 H291        -2.6720     1.7630    -0.4550 hn         1 FD3       0.368800
     54 H31         -3.0830     5.7190    -1.2580 ha         1 FD3       0.135000
     55 H41         -2.9550     7.0250    -2.9980 ha         1 FD3       0.119000
     56 H11          0.9770     4.8320    -1.5230 ha         1 FD3       0.136000
     57 H51         -1.6030     8.0320    -4.9160 ha         1 FD3       0.116000
     58 H61          0.5040     8.1810    -6.1370 ha         1 FD3       0.110000
     59 H71          2.4210     6.7660    -5.5210 ha         1 FD3       0.107000
     60 H81          2.2620     5.1790    -3.6760 ha         1 FD3       0.103000
     61 H433         5.2230    -0.0260     2.2330 hn         1 FD3       0.221800
@<TRIPOS>BOND
     1     1     2 ar  
     2     1     3 ar  
     3     1    10 1   
     4     2     6 ar  
     5     2    34 1   
     6     3     4 ar  
     7     3    35 1   
     8     4     5 ar  
     9     4    36 1   
    10     5     6 ar  
    11     5    37 1   
    12     6     7 1   
    13     7     8 1   
    14     7     9 2   
    15     8    38 1   
    16     8    39 1   
    17     8    61 1   
    18     9    40 1   
    19    10    11 1   
    20    10    41 1   
    21    10    42 1   
    22    11    12 1   
    23    11    20 1   
    24    11    43 1   
    25    12    13 2   
    26    12    14 1   
    27    14    15 1   
    28    14    18 1   
    29    15    16 1   
    30    15    44 1   
    31    15    45 1   
    32    16    19 1   
    33    16    46 1   
    34    16    47 1   
    35    17    18 1   
    36    17    19 1   
    37    17    48 1   
    38    17    49 1   
    39    18    50 1   
    40    18    51 1   
    41    19    52 1   
    42    20    21 1   
    43    20    53 1   
    44    21    22 2   
    45    21    23 2   
    46    21    24 1   
    47    24    25 ar  
    48    24    29 ar  
    49    25    26 ar  
    50    25    54 1   
    51    26    28 ar  
    52    26    55 1   
    53    27    28 ar  
    54    27    29 ar  
    55    27    33 ar  
    56    28    30 ar  
    57    29    56 1   
    58    30    31 ar  
    59    30    57 1   
    60    31    32 ar  
    61    31    58 1   
    62    32    33 ar  
    63    32    59 1   
    64    33    60 1   
@<TRIPOS>SUBSTRUCTURE
     1 FD3         1 TEMP              0 ****  ****    0 ROOT
