@<TRIPOS>MOLECULE
molecule
   66    69     1     0     0
SMALL
bcc


@<TRIPOS>ATOM
      1 C65          0.0000     0.0000     0.0000 ca         1 FD4      -0.066300
      2 C66          1.3790     0.0000     0.0000 ca         1 FD4      -0.037000
      3 C64         -0.6940    -0.0120     1.1970 ca         1 FD4      -0.052000
      4 C63         -0.0110    -0.0200     2.3990 ca         1 FD4      -0.093000
      5 C62          1.3690    -0.0120     2.4120 ca         1 FD4      -0.120000
      6 C61          2.0740     0.0000     1.2090 ca         1 FD4      -0.187900
      7 C25          3.5540     0.0070     1.2160 ce         1 FD4       0.553800
      8 N43          4.2380     0.0020     2.4120 nz         1 FD4      -0.802600
      9 N54          4.2110     0.0200     0.0910 n2         1 FD4      -0.698100
     10 C34         -0.7520     0.0070    -1.3050 c3         1 FD4      -0.047100
     11 C31         -1.0130     1.4520    -1.7360 c3         1 FD4       0.178500
     12 C35         -1.6500     1.4610    -3.1010 c          1 FD4       0.645100
     13 O36         -2.8540     1.5510    -3.2080 o          1 FD4      -0.579100
     14 N81         -0.8810     1.3690    -4.2040 n          1 FD4      -0.487800
     15 C71         -1.4830     1.4380    -5.5430 c3         1 FD4       0.083000
     16 C72         -0.7940     2.5580    -6.3320 c3         1 FD4       0.086500
     17 C74          1.2620     2.3120    -4.8790 c3         1 FD4       0.086500
     18 C75          0.5740     1.1980    -4.0890 c3         1 FD4       0.083000
     19 N40          0.6610     2.3880    -6.2170 n          1 FD4      -0.499800
     20 N29         -1.9120     2.0920    -0.7740 n7         1 FD4      -0.896100
     21 S12         -1.4150     3.4370     0.0550 sy         1 FD4       1.425200
     22 O32         -2.5580     3.9030     0.7570 o          1 FD4      -0.640800
     23 O33         -0.1720     3.0870     0.6470 o          1 FD4      -0.640800
     24 C2          -1.0440     4.6810    -1.1350 ca         1 FD4      -0.308500
     25 C3          -2.0470     5.5580    -1.5460 ca         1 FD4      -0.048000
     26 C4          -1.7940     6.5310    -2.4640 ca         1 FD4      -0.115000
     27 C9           0.5150     5.7640    -2.5890 ca         1 FD4      -0.065000
     28 C10         -0.5050     6.6560    -3.0080 ca         1 FD4       0.006000
     29 C1           0.2170     4.7760    -1.6360 ca         1 FD4      -0.022000
     30 C5          -0.2060     7.6480    -3.9570 ca         1 FD4      -0.119000
     31 C6           1.0560     7.7390    -4.4600 ca         1 FD4      -0.101000
     32 C7           2.0580     6.8630    -4.0490 ca         1 FD4      -0.120000
     33 C8           1.8050     5.8890    -3.1320 ca         1 FD4      -0.120000
     34 C48          1.4300     2.2950    -7.3210 c          1 FD4       0.661100
     35 O49          0.9230     2.3530    -8.4210 o          1 FD4      -0.588100
     36 C55          2.9200     2.1200    -7.1870 c3         1 FD4      -0.171100
     37 H661         1.9220     0.0100    -0.9380 ha         1 FD4       0.158000
     38 H641        -1.7780    -0.0150     1.1920 ha         1 FD4       0.159000
     39 H631        -0.5600    -0.0290     3.3320 ha         1 FD4       0.159000
     40 H621         1.9020    -0.0150     3.3550 ha         1 FD4       0.104000
     41 H431         3.9910     0.8150     2.9420 hn         1 FD4       0.465800
     42 H432         3.9980    -0.8200     2.9310 hn         1 FD4       0.465800
     43 H541         5.2120     0.0250     0.0940 hn         1 FD4       0.429400
     44 H341        -0.1630    -0.4960    -2.0640 hc         1 FD4       0.076200
     45 H342        -1.6960    -0.5090    -1.1810 hc         1 FD4       0.076200
     46 H311        -0.0760     1.9940    -1.7710 h1         1 FD4       0.073700
     47 H711        -2.5410     1.6550    -5.4550 h1         1 FD4       0.064200
     48 H712        -1.3400     0.4940    -6.0540 h1         1 FD4       0.064200
     49 H721        -1.0840     2.5000    -7.3740 h1         1 FD4       0.068200
     50 H722        -1.0790     3.5200    -5.9230 h1         1 FD4       0.068200
     51 H741         1.1240     3.2570    -4.3670 h1         1 FD4       0.068200
     52 H742         2.3190     2.0930    -4.9680 h1         1 FD4       0.068200
     53 H751         0.8600     0.2360    -4.4960 h1         1 FD4       0.064200
     54 H752         0.8650     1.2590    -3.0470 h1         1 FD4       0.064200
     55 H291        -2.8390     1.7400    -0.6450 hn         1 FD4       0.475800
     56 H31         -3.0410     5.4650    -1.1270 ha         1 FD4       0.158000
     57 H41         -2.5840     7.2050    -2.7730 ha         1 FD4       0.149000
     58 H11          1.0120     4.1700    -1.2180 ha         1 FD4       0.138000
     59 H51         -0.9750     8.3360    -4.2860 ha         1 FD4       0.147000
     60 H61          1.2840     8.5050    -5.1920 ha         1 FD4       0.142000
     61 H71          3.0530     6.9580    -4.4660 ha         1 FD4       0.136000
     62 H81          2.5940     5.2150    -2.8220 ha         1 FD4       0.125000
     63 H551         3.3270     2.9290    -6.5920 hc         1 FD4       0.061367
     64 H552         3.1310     1.1740    -6.7030 hc         1 FD4       0.061367
     65 H553         3.3750     2.1310    -8.1710 hc         1 FD4       0.061367
     66 H433         5.2230     0.0000     2.2340 hn         1 FD4       0.465800
@<TRIPOS>BOND
     1     1     2 ar
     2     1     3 ar
     3     1    10 1
     4     2     6 ar
     5     2    37 1
     6     3     4 ar
     7     3    38 1
     8     4     5 ar
     9     4    39 1
    10     5     6 ar
    11     5    40 1
    12     6     7 1
    13     7     8 1
    14     7     9 2
    15     8    41 1
    16     8    42 1
    17     9    43 1
    18    10    11 1
    19    10    44 1
    20    10    45 1
    21    11    12 1
    22    11    20 1
    23    11    46 1
    24    12    13 2
    25    12    14 1
    26    14    15 1
    27    14    18 1
    28    15    16 1
    29    15    47 1
    30    15    48 1
    31    16    19 1
    32    16    49 1
    33    16    50 1
    34    17    18 1
    35    17    19 1
    36    17    51 1
    37    17    52 1
    38    18    53 1
    39    18    54 1
    40    19    34 1
    41    20    21 1
    42    20    55 1
    43    21    22 2
    44    21    23 2
    45    21    24 1
    46    24    25 ar
    47    24    29 ar
    48    25    26 ar
    49    25    56 1
    50    26    28 ar
    51    26    57 1
    52    27    28 ar
    53    27    29 ar
    54    27    33 ar
    55    28    30 ar
    56    29    58 1
    57    30    31 ar
    58    30    59 1
    59    31    32 ar
    60    31    60 1
    61    32    33 ar
    62    32    61 1
    63    33    62 1
    64    34    35 2
    65    34    36 1
    66    36    63 1
    67    36    64 1
    68    36    65 1
    69    66     8 1
@<TRIPOS>SUBSTRUCTURE
     1 FD4         1 TEMP              0 ****  ****    0 ROOT
