@<TRIPOS>MOLECULE
FD4
   66    69     1     0     0
SMALL
bcc


@<TRIPOS>ATOM
      1 C65          0.0000     0.0000     0.0000 ca         1 FD4      -0.054300
      2 C66          1.3790     0.0000     0.0000 ca         1 FD4      -0.047000
      3 C64         -0.6940    -0.0120     1.1970 ca         1 FD4      -0.017000
      4 C63         -0.0110    -0.0200     2.3990 ca         1 FD4      -0.048000
      5 C62          1.3690    -0.0120     2.4120 ca         1 FD4      -0.086000
      6 C61          2.0740     0.0000     1.2090 ca         1 FD4      -0.222900
      7 C25          3.5540     0.0070     1.2160 ce         1 FD4       0.227800
      8 N43          4.2380     0.0020     2.4120 nz         1 FD4       0.188400
      9 N54          4.2110     0.0200     0.0910 n2         1 FD4      -0.509100
     10 C34         -0.7520     0.0070    -1.3050 c3         1 FD4       0.011900
     11 C31         -1.0130     1.4520    -1.7360 c3         1 FD4       0.126500
     12 C35         -1.6500     1.4610    -3.1010 c          1 FD4       0.566100
     13 O36         -2.8540     1.5510    -3.2080 o          1 FD4      -0.614100
     14 N81         -0.8810     1.3690    -4.2040 n          1 FD4      -0.150800
     15 C71         -1.4830     1.4380    -5.5430 c3         1 FD4       0.027500
     16 C72         -0.7940     2.5580    -6.3320 c3         1 FD4       0.030500
     17 C74          1.2620     2.3120    -4.8790 c3         1 FD4       0.030500
     18 C75          0.5740     1.1980    -4.0890 c3         1 FD4       0.027500
     19 N40          0.6610     2.3880    -6.2170 n          1 FD4      -0.171800
     20 N29         -1.9120     2.0920    -0.7740 n7         1 FD4      -0.562100
     21 S12         -1.4150     3.4370     0.0550 sy         1 FD4       1.043200
     22 O32         -2.5580     3.9030     0.7570 o          1 FD4      -0.591800
     23 O33         -0.1720     3.0870     0.6470 o          1 FD4      -0.591800
     24 C2          -1.0440     4.6810    -1.1350 ca         1 FD4      -0.153500
     25 C3          -2.0470     5.5580    -1.5460 ca         1 FD4      -0.018000
     26 C4          -1.7940     6.5310    -2.4640 ca         1 FD4      -0.090000
     27 C9           0.5150     5.7640    -2.5890 ca         1 FD4      -0.074000
     28 C10         -0.5050     6.6560    -3.0080 ca         1 FD4       0.003000
     29 C1           0.2170     4.7760    -1.6360 ca         1 FD4       0.003000
     30 C5          -0.2060     7.6480    -3.9570 ca         1 FD4      -0.088000
     31 C6           1.0560     7.7390    -4.4600 ca         1 FD4      -0.073000
     32 C7           2.0580     6.8630    -4.0490 ca         1 FD4      -0.090000
     33 C8           1.8050     5.8890    -3.1320 ca         1 FD4      -0.095000
     34 C48          1.4300     2.2950    -7.3210 c          1 FD4       0.588100
     35 O49          0.9230     2.3530    -8.4210 o          1 FD4      -0.619100
     36 C55          2.9200     2.1200    -7.1870 c3         1 FD4      -0.071100
     37 H661         1.9220     0.0100    -0.9380 ha         1 FD4       0.102000
     38 H641        -1.7780    -0.0150     1.1920 ha         1 FD4       0.126000
     39 H631        -0.5600    -0.0290     3.3320 ha         1 FD4       0.124000
     40 H621         1.9020    -0.0150     3.3550 ha         1 FD4       0.081000
     41 H431         3.9980    -0.8200     2.9310 hn         1 FD4       0.222467
     42 H432         3.9910     0.8140     2.9420 hn         1 FD4       0.222467
     43 H541         3.7170     0.0240    -0.7790 hn         1 FD4       0.377400
     44 H341        -1.6960    -0.5090    -1.1810 hc         1 FD4       0.039700
     45 H342        -0.1630    -0.4960    -2.0640 hc         1 FD4       0.039700
     46 H311        -0.0760     1.9940    -1.7710 h1         1 FD4       0.047700
     47 H711        -1.3400     0.4940    -6.0540 h1         1 FD4       0.037200
     48 H712        -2.5410     1.6550    -5.4550 h1         1 FD4       0.037200
     49 H721        -1.0790     3.5200    -5.9230 h1         1 FD4       0.041450
     50 H722        -1.0840     2.5000    -7.3740 h1         1 FD4       0.041450
     51 H741         2.3190     2.0930    -4.9680 h1         1 FD4       0.041450
     52 H742         1.1240     3.2570    -4.3670 h1         1 FD4       0.041450
     53 H751         0.8600     0.2360    -4.4960 h1         1 FD4       0.037200
     54 H752         0.8650     1.2590    -3.0470 h1         1 FD4       0.037200
     55 H291        -2.8390     1.7400    -0.6450 hn         1 FD4       0.372800
     56 H31         -3.0410     5.4650    -1.1270 ha         1 FD4       0.132000
     57 H41         -2.5840     7.2050    -2.7730 ha         1 FD4       0.120000
     58 H11          1.0120     4.1700    -1.2180 ha         1 FD4       0.113000
     59 H51         -0.9750     8.3360    -4.2860 ha         1 FD4       0.118000
     60 H61          1.2840     8.5050    -5.1920 ha         1 FD4       0.112000
     61 H71          3.0530     6.9580    -4.4660 ha         1 FD4       0.107000
     62 H81          2.5940     5.2150    -2.8220 ha         1 FD4       0.098000
     63 H551         3.3750     2.1310    -8.1710 hc         1 FD4       0.025033
     64 H552         3.1310     1.1740    -6.7030 hc         1 FD4       0.025033
     65 H553         3.3270     2.9290    -6.5920 hc         1 FD4       0.025033
     66 H433         5.2230     0.0200     2.2340 hn         1 FD4       0.222467
@<TRIPOS>BOND
     1     1     2 ar  
     2     1     3 ar  
     3     1    10 1   
     4     2     6 ar  
     5     2    37 1   
     6     3     4 ar  
     7     3    38 1   
     8     4     5 ar  
     9     4    39 1   
    10     5     6 ar  
    11     5    40 1   
    12     6     7 1   
    13     7     8 1   
    14     7     9 2   
    15     8    41 1   
    16     8    42 1   
    17     8    66 1   
    18     9    43 1   
    19    10    11 1   
    20    10    44 1   
    21    10    45 1   
    22    11    12 1   
    23    11    20 1   
    24    11    46 1   
    25    12    13 2   
    26    12    14 1   
    27    14    15 1   
    28    14    18 1   
    29    15    16 1   
    30    15    47 1   
    31    15    48 1   
    32    16    19 1   
    33    16    49 1   
    34    16    50 1   
    35    17    18 1   
    36    17    19 1   
    37    17    51 1   
    38    17    52 1   
    39    18    53 1   
    40    18    54 1   
    41    19    34 1   
    42    20    21 1   
    43    20    55 1   
    44    21    22 2   
    45    21    23 2   
    46    21    24 1   
    47    24    25 ar  
    48    24    29 ar  
    49    25    26 ar  
    50    25    56 1   
    51    26    28 ar  
    52    26    57 1   
    53    27    28 ar  
    54    27    29 ar  
    55    27    33 ar  
    56    28    30 ar  
    57    29    58 1   
    58    30    31 ar  
    59    30    59 1   
    60    31    32 ar  
    61    31    60 1   
    62    32    33 ar  
    63    32    61 1   
    64    33    62 1   
    65    34    35 2   
    66    34    36 1   
    67    36    63 1   
    68    36    64 1   
    69    36    65 1   
@<TRIPOS>SUBSTRUCTURE
     1 FD4         1 TEMP              0 ****  ****    0 ROOT
