@<TRIPOS>MOLECULE
molecule
   48    51     1     0     0
SMALL
bcc


@<TRIPOS>ATOM
      1 SAQ          0.0000     0.0000     0.0000 ss         1 FD6      -0.250800
      2 CAR          4.5320    -0.0060    -0.0460 ca         1 FD6       0.060400
      3 NAY          1.8280     0.0040     2.4320 na         1 FD6      -0.193100
      4 CAE          3.8230    -0.0030    -1.2330 ca         1 FD6      -0.148000
      5 NAX          4.8360    -1.0930     6.0800 n3         1 FD6      -0.509400
      6 CAH          2.4400     0.0000    -1.2110 ca         1 FD6      -0.069000
      7 NAP          4.0800    -0.0470     5.4100 n7         1 FD6      -0.597000
      8 NAW          6.5520    -2.1550     8.0900 n3         1 FD6      -0.734600
      9 CAT          1.7610     0.0000     0.0000 ca         1 FD6       0.017900
     10 CAV          2.4710     0.0000     1.1960 ca         1 FD6       0.094700
     11 CAI          3.8620    -0.0050     1.1640 ca         1 FD6      -0.179000
     12 CAS         -0.4080    -0.5220     1.6310 ca         1 FD6       0.016900
     13 CAF         -1.6870    -0.9930     1.8930 ca         1 FD6      -0.077000
     14 CAC         -2.0270    -1.4100     3.1670 ca         1 FD6      -0.152000
     15 CAD         -1.0900    -1.3580     4.1830 ca         1 FD6      -0.094000
     16 ClAB         6.2680    -0.0110    -0.0740 cl         1 FD6      -0.107400
     17 CAG          0.1840    -0.8890     3.9290 ca         1 FD6      -0.177000
     18 CAU          0.5360    -0.4660     2.6510 ca         1 FD6       0.081700
     19 CAO          2.5630     0.5410     3.5810 c3         1 FD6       0.045300
     20 CAJ          3.3440    -0.5860     4.2590 c3         1 FD6       0.128800
     21 CAN          6.2740    -0.7900     6.0770 c3         1 FD6       0.155800
     22 CAL          7.0400    -1.9490     6.7180 c3         1 FD6       0.163300
     23 CAK          5.1130    -2.4590     8.0930 c3         1 FD6       0.163300
     24 CAM          4.3490    -1.2990     7.4510 c3         1 FD6       0.155800
     25 CAA          7.3150    -3.2120     8.7670 c3         1 FD6       0.153100
     26 HAM1         3.2920    -1.5360     7.4260 h1         1 FD6       0.047200
     27 HAM2         4.5090    -0.3980     8.0300 h1         1 FD6       0.047200
     28 HAK1         4.7760    -2.5910     9.1140 h1         1 FD6       0.042950
     29 HAK2         4.9350    -3.3650     7.5280 h1         1 FD6       0.042950
     30 HAA1         7.1840    -4.1480     8.2370 h1         1 FD6       0.033033
     31 HAA2         6.9580    -3.3200     9.7840 h1         1 FD6       0.033033
     32 HAA3         8.3650    -2.9480     8.7790 h1         1 FD6       0.033033
     33 HAL1         6.8790    -2.8510     6.1390 h1         1 FD6       0.042950
     34 HAL2         8.0960    -1.7120     6.7440 h1         1 FD6       0.042950
     35 HAN1         6.6120    -0.6570     5.0560 h1         1 FD6       0.047200
     36 HAN2         6.4520     0.1170     6.6430 h1         1 FD6       0.047200
     37 HAP          4.7060     0.6700     5.1000 hn         1 FD6       0.344800
     38 HAJ1         4.0440    -1.0170     3.5530 h1         1 FD6       0.054200
     39 HAJ2         2.6550    -1.3500     4.5970 h1         1 FD6       0.054200
     40 HAO1         3.2520     1.3060     3.2430 h1         1 FD6       0.066200
     41 HAO2         1.8640     0.9720     4.2870 h1         1 FD6       0.066200
     42 HAI          4.4230    -0.0070     2.0910 ha         1 FD6       0.150000
     43 HAE          4.3500    -0.0040    -2.1790 ha         1 FD6       0.148000
     44 HAH          1.8860     0.0020    -2.1420 ha         1 FD6       0.149000
     45 HAF         -2.4210    -1.0340     1.0980 ha         1 FD6       0.142000
     46 HAG          0.9140    -0.8510     4.7290 ha         1 FD6       0.147000
     47 HAD         -1.3570    -1.6850     5.1810 ha         1 FD6       0.134000
     48 HAC         -3.0260    -1.7780     3.3690 ha         1 FD6       0.135000
@<TRIPOS>BOND
     1    24    23 1
     2    24     5 1
     3    23     8 1
     4     8    25 1
     5     8    22 1
     6    22    21 1
     7    21     5 1
     8     5     7 1
     9     7    20 1
    10    20    19 1
    11    19     3 1
    12     3    10 1
    13     3    18 1
    14    10    11 ar
    15    10     9 ar
    16    11     2 ar
    17     2    16 1
    18     2     4 ar
    19     4     6 ar
    20     6     9 ar
    21     9     1 1
    22     1    12 1
    23    12    18 ar
    24    12    13 ar
    25    18    17 ar
    26    17    15 ar
    27    15    14 ar
    28    14    13 ar
    29    24    26 1
    30    24    27 1
    31    23    28 1
    32    23    29 1
    33    25    30 1
    34    25    31 1
    35    25    32 1
    36    22    33 1
    37    22    34 1
    38    21    35 1
    39    21    36 1
    40     7    37 1
    41    20    38 1
    42    20    39 1
    43    19    40 1
    44    19    41 1
    45    11    42 1
    46     4    43 1
    47     6    44 1
    48    13    45 1
    49    17    46 1
    50    15    47 1
    51    14    48 1
@<TRIPOS>SUBSTRUCTURE
     1 FD6         1 TEMP              0 ****  ****    0 ROOT
