@<TRIPOS>MOLECULE
FD7
   41    41     1     0     0
SMALL
bcc


@<TRIPOS>ATOM
      1 C10          0.0000     0.0000     0.0000 ca         1 FD7      -0.082400
      2 C12         -1.4840    -1.0410    -1.5410 c          1 FD7       0.570100
      3 C14         -2.8780    -2.1570    -3.0900 c2         1 FD7       0.375800
      4 C16         -4.3330    -3.3380    -4.6820 c3         1 FD7       0.188800
      5 C17         -4.8750    -3.1420    -6.1000 c3         1 FD7      -0.009100
      6 C01          2.2320     1.4300    -1.8430 c3         1 FD7       0.002900
      7 C02          2.1430    -0.0000    -1.3050 c3         1 FD7       0.026400
      8 C03          1.3890     0.0000     0.0000 ca         1 FD7      -0.068300
      9 C04          2.0780     0.0000     1.1970 ca         1 FD7      -0.099000
     10 C05          1.3870     0.0010     2.3940 ca         1 FD7      -0.088000
     11 C06          0.0040     0.0010     2.3980 ca         1 FD7      -0.099000
     12 C07         -0.6910     0.0000     1.2040 ca         1 FD7      -0.068300
     13 C08         -2.1980    -0.0000     1.2090 c3         1 FD7       0.026400
     14 C09         -2.7060    -1.3540     1.7090 c3         1 FD7       0.002900
     15 N11         -0.7010     0.0050    -1.2110 ns         1 FD7      -0.065100
     16 N13         -2.0760    -1.0850    -2.7510 ns         1 FD7      -0.101400
     17 N15         -3.4800    -2.2010    -4.3240 nu         1 FD7      -0.505200
     18 N18         -3.0630    -3.1250    -2.2390 n2         1 FD7      -0.850100
     19 O19         -1.6570    -1.9450    -0.7470 o          1 FD7      -0.671100
     20 H1          -3.7520    -4.2520    -4.6410 h1         1 FD7       0.024200
     21 H2          -5.1590    -3.4040    -3.9850 h1         1 FD7       0.024200
     22 H3          -5.4540    -2.2270    -6.1410 hc         1 FD7       0.005033
     23 H4          -4.0490    -3.0790    -6.7970 hc         1 FD7       0.005033
     24 H5          -5.5070    -3.9810    -6.3640 hc         1 FD7       0.005033
     25 H6           3.2670     1.7490    -1.8510 hc         1 FD7       0.007367
     26 H7           1.8360     1.4610    -2.8520 hc         1 FD7       0.007367
     27 H8           1.6550     2.0910    -1.2090 hc         1 FD7       0.007367
     28 H9           3.1420    -0.3880    -1.1450 hc         1 FD7       0.015950
     29 H10          1.6230    -0.6240    -2.0220 hc         1 FD7       0.015950
     30 H11          3.1610    -0.0000     1.1980 ha         1 FD7       0.108500
     31 H12          1.9300     0.0010     3.3320 ha         1 FD7       0.103000
     32 H13         -0.5350     0.0020     3.3380 ha         1 FD7       0.108500
     33 H14         -2.5570     0.7850     1.8640 hc         1 FD7       0.015950
     34 H15         -2.5630     0.1740     0.2040 hc         1 FD7       0.015950
     35 H16         -3.0100    -1.2660     2.7450 hc         1 FD7       0.007367
     36 H17         -3.5530    -1.6660     1.1100 hc         1 FD7       0.007367
     37 H18         -1.9150    -2.0900     1.6260 hc         1 FD7       0.007367
     38 H19         -0.6450     0.7990    -1.8180 hn         1 FD7       0.164500
     39 H20         -1.9420    -0.3350    -3.4010 hn         1 FD7       0.155500
     40 H21         -3.3430    -1.4540    -4.9750 hn         1 FD7       0.278800
     41 H22         -2.6250    -3.0920    -1.3400 hn         1 FD7       0.422400
@<TRIPOS>BOND
     1     1     8 ar  
     2     1    12 ar  
     3     1    15 1   
     4     2    15 1   
     5     2    16 1   
     6     2    19 2   
     7     3    16 1   
     8     3    17 1   
     9     3    18 2   
    10     4     5 1   
    11     4    17 1   
    12     4    20 1   
    13     4    21 1   
    14     5    22 1   
    15     5    23 1   
    16     5    24 1   
    17     6     7 1   
    18     6    25 1   
    19     6    26 1   
    20     6    27 1   
    21     7     8 1   
    22     7    28 1   
    23     7    29 1   
    24     8     9 ar  
    25     9    10 ar  
    26     9    30 1   
    27    10    11 ar  
    28    10    31 1   
    29    11    12 ar  
    30    11    32 1   
    31    12    13 1   
    32    13    14 1   
    33    13    33 1   
    34    13    34 1   
    35    14    35 1   
    36    14    36 1   
    37    14    37 1   
    38    15    38 1   
    39    16    39 1   
    40    17    40 1   
    41    18    41 1   
@<TRIPOS>SUBSTRUCTURE
     1 FD7         1 TEMP              0 ****  ****    0 ROOT
