@<TRIPOS>MOLECULE
molecule
   41    41     1     0     0
SMALL
bcc


@<TRIPOS>ATOM
      1 C10          0.0000     0.0000     0.0000 ca         1 FD7       0.064600
      2 C12         -1.4840    -1.0410    -1.5410 c          1 FD7       0.773100
      3 C14         -2.8780    -2.1570    -3.0900 c2         1 FD7       0.693800
      4 C16         -4.3330    -3.3380    -4.6820 c3         1 FD7       0.240800
      5 C17         -4.8750    -3.1420    -6.1000 c3         1 FD7      -0.107100
      6 C01          2.2320     1.4300    -1.8430 c3         1 FD7      -0.085600
      7 C02          2.1430    -0.0000    -1.3050 c3         1 FD7      -0.035600
      8 C03          1.3890     0.0000     0.0000 ca         1 FD7      -0.069800
      9 C04          2.0780     0.0000     1.1970 ca         1 FD7      -0.126000
     10 C05          1.3870     0.0010     2.3940 ca         1 FD7      -0.124000
     11 C06          0.0040     0.0010     2.3980 ca         1 FD7      -0.126000
     12 C07         -0.6910     0.0000     1.2040 ca         1 FD7      -0.069800
     13 C08         -2.1980    -0.0000     1.2090 c3         1 FD7      -0.035600
     14 C09         -2.7060    -1.3540     1.7090 c3         1 FD7      -0.085600
     15 N11         -0.7010     0.0050    -1.2110 ns         1 FD7      -0.508100
     16 N13         -2.0760    -1.0850    -2.7510 ns         1 FD7      -0.497400
     17 N15         -3.4800    -2.2010    -4.3240 nu         1 FD7      -0.949200
     18 N18         -3.0630    -3.1250    -2.2390 n2         1 FD7      -0.872100
     19 O19         -1.6570    -1.9450    -0.7470 o          1 FD7      -0.551100
     20 H1          -3.7520    -4.2520    -4.6410 h1         1 FD7       0.043200
     21 H2          -5.1590    -3.4040    -3.9850 h1         1 FD7       0.043200
     22 H3          -4.0490    -3.0790    -6.7970 hc         1 FD7       0.044700
     23 H4          -5.5080    -3.9810    -6.3640 hc         1 FD7       0.044700
     24 H5          -5.4540    -2.2270    -6.1410 hc         1 FD7       0.044700
     25 H6           3.2660     1.7510    -1.8470 hc         1 FD7       0.038033
     26 H7           1.8400     1.4600    -2.8530 hc         1 FD7       0.038033
     27 H8           1.6510     2.0900    -1.2110 hc         1 FD7       0.038033
     28 H9           1.6240    -0.6240    -2.0220 hc         1 FD7       0.046700
     29 H10          3.1420    -0.3880    -1.1450 hc         1 FD7       0.046700
     30 H11          3.1610     0.0000     1.1980 ha         1 FD7       0.133000
     31 H12          1.9300     0.0010     3.3320 ha         1 FD7       0.129000
     32 H13         -0.5350     0.0020     3.3380 ha         1 FD7       0.133000
     33 H14         -2.5570     0.7840     1.8640 hc         1 FD7       0.046700
     34 H15         -2.5630     0.1740     0.2040 hc         1 FD7       0.046700
     35 H16         -1.9150    -2.0900     1.6260 hc         1 FD7       0.038033
     36 H17         -3.0100    -1.2660     2.7450 hc         1 FD7       0.038033
     37 H18         -3.5530    -1.6660     1.1090 hc         1 FD7       0.038033
     38 H19         -0.6450     0.7990    -1.8180 hn         1 FD7       0.311500
     39 H20         -1.9430    -0.3350    -3.4010 hn         1 FD7       0.311500
     40 H21         -3.3430    -1.4540    -4.9750 hn         1 FD7       0.419800
     41 H22         -3.6450    -3.9020    -2.4830 hn         1 FD7       0.397400
@<TRIPOS>BOND
     1     6     7 1
     2     7     8 1
     3    15     1 1
     4    15     2 1
     5     8     1 ar
     6     8     9 ar
     7     5     4 1
     8     1    12 ar
     9     9    10 ar
    10    16     2 1
    11    16     3 1
    12    17     4 1
    13    17     3 1
    14    12    13 1
    15    12    11 ar
    16     2    19 2
    17    10    11 ar
    18    13    14 1
    19     3    18 2
    20     4    20 1
    21     4    21 1
    22     5    22 1
    23     5    23 1
    24     5    24 1
    25     6    25 1
    26     6    26 1
    27     6    27 1
    28     7    28 1
    29     7    29 1
    30     9    30 1
    31    10    31 1
    32    11    32 1
    33    13    33 1
    34    13    34 1
    35    14    35 1
    36    14    36 1
    37    14    37 1
    38    15    38 1
    39    16    39 1
    40    17    40 1
    41    18    41 1
@<TRIPOS>SUBSTRUCTURE
     1 FD7         1 TEMP              0 ****  ****    0 ROOT
