@<TRIPOS>MOLECULE
molecule
   40    42     1     0     0
SMALL
bcc


@<TRIPOS>ATOM
      1 N            0.0000     0.0000     0.0000 ns         1 FD8      -0.471100
      2 F1           5.6160    -0.0230    -0.2410 f          1 FD8      -0.214300
      3 O1           1.9560     0.0970     1.0490 o          1 FD8      -0.563100
      4 C2           3.4830    -0.1190    -1.2780 ca         1 FD8      -0.122300
      5 F2           3.9060    -1.0690     0.8560 f          1 FD8      -0.214300
      6 O2          -0.3630    -1.3000     4.5980 os         1 FD8      -0.214200
      7 C3           2.0870    -0.1180    -1.2750 ca         1 FD8      -0.104600
      8 F3           3.9060     1.2060     0.6450 f          1 FD8      -0.214300
      9 C4           1.3920    -0.2290    -2.4800 ca         1 FD8      -0.110000
     10 C5           2.0880    -0.3400    -3.6660 ca         1 FD8      -0.110000
     11 C6           3.4710    -0.3400    -3.6630 ca         1 FD8      -0.108000
     12 C7           4.1660    -0.2240    -2.4720 ca         1 FD8      -0.092000
     13 C8           1.3480     0.0000     0.0000 c          1 FD8       0.664700
     14 C9          -0.6990     0.0000     1.2120 ca         1 FD8       0.093600
     15 C10         -1.9180     0.6600     1.3110 ca         1 FD8      -0.189000
     16 C11         -2.6080     0.6590     2.5080 ca         1 FD8      -0.071000
     17 C12         -2.0890     0.0050     3.6080 ca         1 FD8      -0.221000
     18 C13         -0.8720    -0.6570     3.5140 ca         1 FD8       0.144100
     19 C14         -0.1790    -0.6630     2.3150 ca         1 FD8      -0.138000
     20 C15         -1.0790    -1.2700     5.7530 ca         1 FD8       0.060100
     21 C16         -2.0170    -2.2600     6.0150 ca         1 FD8       0.125400
     22 C17         -2.7460    -2.2300     7.1930 ca         1 FD8       0.073900
     23 C18         -2.5400    -1.2120     8.1090 ca         1 FD8       0.107900
     24 C19         -1.6050    -0.2230     7.8490 ca         1 FD8       0.073900
     25 C20         -0.8710    -0.2540     6.6750 ca         1 FD8       0.125400
     26 HN          -0.5000     0.0250    -0.8660 hn         1 FD8       0.328500
     27 H4           0.3090    -0.2290    -2.4840 ha         1 FD8       0.132000
     28 H5           1.5490    -0.4280    -4.6020 ha         1 FD8       0.141000
     29 H6           4.0120    -0.4250    -4.5970 ha         1 FD8       0.144000
     30 H7           5.2490    -0.2250    -2.4760 ha         1 FD8       0.159000
     31 H10         -2.3280     1.1740     0.4500 ha         1 FD8       0.133000
     32 H11         -3.5580     1.1750     2.5840 ha         1 FD8       0.138000
     33 H12         -2.6330     0.0070     4.5450 ha         1 FD8       0.134000
     34 H14          0.7300    -1.2440     2.2180 ha         1 FD8       0.177000
     35 C1           4.2410     0.0010     0.0190 c3         1 FD8       0.684200
     36 F4          -2.2180    -3.2540     5.1200 f          1 FD8      -0.092400
     37 F5          -3.6590    -3.1940     7.4460 f          1 FD8      -0.099400
     38 F6          -3.2520    -1.1830     9.2570 f          1 FD8      -0.096900
     39 F7          -1.4050     0.7700     8.7440 f          1 FD8      -0.099400
     40 F8           0.0450     0.7070     6.4240 f          1 FD8      -0.092400
@<TRIPOS>BOND
     1     1    13 1
     2     1    14 1
     3    35     2 1
     4    35     4 1
     5    35     5 1
     6    35     8 1
     7     3    13 2
     8     4     7 ar
     9     4    12 ar
    10     6    18 1
    11     6    20 1
    12     7     9 ar
    13     7    13 1
    14     9    10 ar
    15    36    21 1
    16    10    11 ar
    17    37    22 1
    18    11    12 ar
    19    38    23 1
    20    39    24 1
    21    40    25 1
    22    14    15 ar
    23    14    19 ar
    24    15    16 ar
    25    16    17 ar
    26    17    18 ar
    27    18    19 ar
    28    20    21 ar
    29    20    25 ar
    30    21    22 ar
    31    22    23 ar
    32    23    24 ar
    33    24    25 ar
    34     1    26 1
    35     9    27 1
    36    10    28 1
    37    11    29 1
    38    12    30 1
    39    15    31 1
    40    16    32 1
    41    17    33 1
    42    19    34 1
@<TRIPOS>SUBSTRUCTURE
     1 FD8         1 TEMP              0 ****  ****    0 ROOT
