@<TRIPOS>MOLECULE
FD8
   40    42     1     0     0
SMALL
bcc


@<TRIPOS>ATOM
      1 N            0.0000     0.0000     0.0000 ns         1 FD8      -0.029100
      2 F1           5.6160    -0.0230    -0.2410 f          1 FD8      -0.204633
      3 O1           1.9560     0.0970     1.0490 o          1 FD8      -0.611100
      4 C2           3.4830    -0.1190    -1.2780 ca         1 FD8      -0.142300
      5 F2           3.9060    -1.0690     0.8560 f          1 FD8      -0.204633
      6 O2          -0.3630    -1.3000     4.5980 os         1 FD8      -0.190200
      7 C3           2.0870    -0.1180    -1.2750 ca         1 FD8      -0.100600
      8 F3           3.9060     1.2060     0.6450 f          1 FD8      -0.204633
      9 C4           1.3920    -0.2290    -2.4800 ca         1 FD8      -0.091000
     10 C5           2.0880    -0.3400    -3.6660 ca         1 FD8      -0.076000
     11 C6           3.4710    -0.3400    -3.6630 ca         1 FD8      -0.081000
     12 C7           4.1660    -0.2240    -2.4720 ca         1 FD8      -0.056000
     13 C8           1.3480     0.0000     0.0000 c          1 FD8       0.571700
     14 C9          -0.6990     0.0000     1.2120 ca         1 FD8      -0.050400
     15 C10         -1.9180     0.6600     1.3110 ca         1 FD8      -0.164000
     16 C11         -2.6080     0.6590     2.5080 ca         1 FD8      -0.035000
     17 C12         -2.0890     0.0050     3.6080 ca         1 FD8      -0.210000
     18 C13         -0.8720    -0.6570     3.5140 ca         1 FD8       0.153100
     19 C14         -0.1790    -0.6630     2.3150 ca         1 FD8      -0.119000
     20 C15         -1.0790    -1.2700     5.7530 ca         1 FD8       0.085100
     21 C16         -2.0170    -2.2600     6.0150 ca         1 FD8       0.103900
     22 C17         -2.7460    -2.2300     7.1930 ca         1 FD8       0.074400
     23 C18         -2.5400    -1.2120     8.1090 ca         1 FD8       0.093900
     24 C19         -1.6050    -0.2230     7.8490 ca         1 FD8       0.074400
     25 C20         -0.8710    -0.2540     6.6750 ca         1 FD8       0.103900
     26 HN          -0.5000     0.0250    -0.8660 hn         1 FD8       0.174500
     27 H4           0.3090    -0.2290    -2.4840 ha         1 FD8       0.107000
     28 H5           1.5490    -0.4280    -4.6020 ha         1 FD8       0.109000
     29 H6           4.0120    -0.4250    -4.5970 ha         1 FD8       0.112000
     30 H7           5.2490    -0.2250    -2.4760 ha         1 FD8       0.127000
     31 H10         -2.3280     1.1740     0.4500 ha         1 FD8       0.109000
     32 H11         -3.5580     1.1750     2.5840 ha         1 FD8       0.105000
     33 H12         -2.6330     0.0070     4.5450 ha         1 FD8       0.113000
     34 H14          0.7300    -1.2440     2.2180 ha         1 FD8       0.153000
     35 C1           4.2410     0.0010     0.0190 c3         1 FD8       0.659200
     36 F4          -2.2180    -3.2540     5.1200 f          1 FD8      -0.091900
     37 F5          -3.6590    -3.1940     7.4460 f          1 FD8      -0.093400
     38 F6          -3.2520    -1.1830     9.2570 f          1 FD8      -0.091900
     39 F7          -1.4050     0.7700     8.7440 f          1 FD8      -0.093400
     40 F8           0.0450     0.7070     6.4240 f          1 FD8      -0.091900
@<TRIPOS>BOND
     1     1    13 1   
     2     1    14 1   
     3     1    26 1   
     4     2    35 1   
     5     3    13 2   
     6     4     7 ar  
     7     4    12 ar  
     8     4    35 1   
     9     5    35 1   
    10     6    18 1   
    11     6    20 1   
    12     7     9 ar  
    13     7    13 1   
    14     8    35 1   
    15     9    10 ar  
    16     9    27 1   
    17    10    11 ar  
    18    10    28 1   
    19    11    12 ar  
    20    11    29 1   
    21    12    30 1   
    22    14    15 ar  
    23    14    19 ar  
    24    15    16 ar  
    25    15    31 1   
    26    16    17 ar  
    27    16    32 1   
    28    17    18 ar  
    29    17    33 1   
    30    18    19 ar  
    31    19    34 1   
    32    20    21 ar  
    33    20    25 ar  
    34    21    22 ar  
    35    21    36 1   
    36    22    23 ar  
    37    22    37 1   
    38    23    24 ar  
    39    23    38 1   
    40    24    25 ar  
    41    24    39 1   
    42    25    40 1   
@<TRIPOS>SUBSTRUCTURE
     1 FD8         1 TEMP              0 ****  ****    0 ROOT
