@<TRIPOS>MOLECULE
FD9
   59    63     1     0     0
SMALL
bcc


@<TRIPOS>ATOM
      1 N4         -0.5380   -3.9200   -1.0260 n1        1 FD9     -0.380800
      2 C25        -0.0920   -3.0980   -0.3330 cg        1 FD9      0.232500
      3 C7          0.4460   -2.1100    0.5030 cc        1 FD9     -0.056900
      4 C6          1.6030   -1.3610    0.2560 cd        1 FD9     -0.043100
      5 C8         -0.0860   -1.6730    1.7780 ca        1 FD9     -0.033800
      6 C13        -1.1970   -2.0410    2.5350 ca        1 FD9     -0.139000
      7 C12        -1.4040   -1.3860    3.7460 ca        1 FD9      0.100100
      8 C11        -0.5340   -0.3740    4.2200 ca        1 FD9     -0.127000
      9 C10         0.5750    0.0010    3.4820 ca        1 FD9     -0.117000
     10 C9          0.8080   -0.6430    2.2570 ca        1 FD9     -0.070200
     11 N1          1.8140   -0.4520    1.2900 na        1 FD9     -0.064400
     12 C5          2.9700    0.3940    1.4240 c3        1 FD9      0.126600
     13 C2          4.2160   -0.2890    1.8340 cc        1 FD9     -0.370900
     14 C3          5.1330   -0.9710    1.0520 cd        1 FD9      0.297000
     15 C4          5.2430   -1.3190   -0.3630 c3        1 FD9     -0.148400
     16 O           6.1770   -1.4010    1.9000 os        1 FD9     -0.112100
     17 N           5.9420   -1.0240    3.1420 nd        1 FD9     -0.355300
     18 C1          4.7750   -0.3490    3.1900 cc        1 FD9      0.343600
     19 C           4.1490    0.2350    4.3900 c3        1 FD9     -0.140400
     20 O1         -2.4310   -1.7080    4.6280 os        1 FD9     -0.249200
     21 C14        -3.5600   -2.3090    4.0730 ca        1 FD9      0.059100
     22 C19        -4.2650   -1.7350    3.0110 ca        1 FD9     -0.118000
     23 C18        -5.4590   -2.3050    2.5830 ca        1 FD9     -0.156500
     24 C17        -5.9660   -3.4620    3.2150 ca        1 FD9      0.062600
     25 C16        -5.2310   -4.0300    4.2860 ca        1 FD9     -0.156500
     26 C15        -4.0370   -3.4620    4.7100 ca        1 FD9     -0.118000
     27 N2         -7.1800   -4.0670    2.8500 n         1 FD9     -0.450100
     28 C20        -7.9420   -3.7960    1.7280 c         1 FD9      0.671100
     29 O2         -7.6890   -2.8840    0.9200 o         1 FD9     -0.598100
     30 C21        -9.2190   -4.6380    1.5060 c3        1 FD9      0.093500
     31 N3         -9.0370   -6.0560    1.8170 n3        1 FD9     -0.820200
     32 C24        -9.9750   -6.4340    2.8690 c3        1 FD9      0.149800
     33 C23       -10.9060   -5.2500    3.1770 c3        1 FD9     -0.103400
     34 C22       -10.3640   -4.0720    2.3780 c3        1 FD9     -0.091400
     35 H6          2.2850   -1.4080   -0.5980 h4        1 FD9      0.173000
     36 H13        -1.8900   -2.8190    2.1820 ha        1 FD9      0.163000
     37 H11        -0.7530    0.1010    5.1880 ha        1 FD9      0.153000
     38 H10         1.2520    0.7840    3.8510 ha        1 FD9      0.135000
     39 H51C        3.1430    0.8930    0.4230 h1        1 FD9      0.072200
     40 H52C        2.7250    1.1930    2.1840 h1        1 FD9      0.072200
     41 H41C        4.7180   -2.2910   -0.5570 hc        1 FD9      0.070033
     42 H42C        4.7690   -0.5220   -0.9890 hc        1 FD9      0.070033
     43 H43C        6.3160   -1.4320   -0.6610 hc        1 FD9      0.070033
     44 HC1         4.7900    0.1090    5.2980 hc        1 FD9      0.062367
     45 HC2         3.1640   -0.2640    4.5750 hc        1 FD9      0.062367
     46 HC3         3.9720    1.3270    4.2270 hc        1 FD9      0.062367
     47 H19        -3.8720   -0.8360    2.5140 ha        1 FD9      0.150000
     48 H15        -3.4710   -3.9010    5.5440 ha        1 FD9      0.150000
     49 H18        -6.0000   -1.8400    1.7420 ha        1 FD9      0.156000
     50 H16        -5.5960   -4.9340    4.7960 ha        1 FD9      0.156000
     51 H2         -7.4190   -4.8830    3.3720 hn        1 FD9      0.330500
     52 H21        -9.4680   -4.4940    0.4130 h1        1 FD9      0.079700
     53 H3         -9.1590   -6.6150    0.9960 hn        1 FD9      0.372800
     54 H221      -11.1530   -3.6280    1.7240 hc        1 FD9      0.062200
     55 H222       -9.9910   -3.2650    3.0550 hc        1 FD9      0.062200
     56 H241       -9.3660   -6.6940    3.7800 h1        1 FD9      0.047200
     57 H242      -10.5690   -7.3440    2.5860 h1        1 FD9      0.047200
     58 H231      -11.9550   -5.4880    2.8750 hc        1 FD9      0.053700
     59 H232      -10.9100   -5.0290    4.2720 hc        1 FD9      0.053700
@<TRIPOS>BOND
     1    1    2 3
     2    2    3 1
     3    3    4 2
     4    3    5 1
     5    4   11 1
     6    4   35 1
     7    5    6 ar
     8    5   10 ar
     9    6    7 ar
    10    6   36 1
    11    7    8 ar
    12    7   20 1
    13    8    9 ar
    14    8   37 1
    15    9   10 ar
    16    9   38 1
    17   10   11 1
    18   11   12 1
    19   12   13 1
    20   12   39 1
    21   12   40 1
    22   13   14 2
    23   13   18 1
    24   14   15 1
    25   14   16 1
    26   15   41 1
    27   15   42 1
    28   15   43 1
    29   16   17 1
    30   17   18 2
    31   18   19 1
    32   19   44 1
    33   19   45 1
    34   19   46 1
    35   20   21 1
    36   21   22 ar
    37   21   26 ar
    38   22   23 ar
    39   22   47 1
    40   23   24 ar
    41   23   49 1
    42   24   25 ar
    43   24   27 1
    44   25   26 ar
    45   25   50 1
    46   26   48 1
    47   27   28 1
    48   27   51 1
    49   28   29 2
    50   28   30 1
    51   30   31 1
    52   30   34 1
    53   30   52 1
    54   31   32 1
    55   31   53 1
    56   32   33 1
    57   32   56 1
    58   32   57 1
    59   33   34 1
    60   33   58 1
    61   33   59 1
    62   34   54 1
    63   34   55 1
@<TRIPOS>SUBSTRUCTURE
     1 FD9         1 TEMP              0 ****  ****    0 ROOT
