@<TRIPOS>MOLECULE
FDB
   21    22     1     0     0
SMALL
bcc


@<TRIPOS>ATOM
      1 CAA          0.0000     0.0000     0.0000 c3         1 FDB       0.080200
      2 NAB          4.8180    -0.0080    -4.6510 nz         1 FDB       0.221400
      3 OAC          0.4920    -0.0080    -3.1410 o          1 FDB      -0.586500
      4 CAD          2.4670     0.0000     0.6360 cc         1 FDB      -0.266300
      5 NAE          4.3480     0.0010    -2.3960 nc         1 FDB      -0.355100
      6 NAF          3.6830     0.0000     0.0000 na         1 FDB       0.474900
      7 NAG          2.5690     0.0020    -3.9210 ns         1 FDB      -0.020400
      8 CAH          1.4810     0.0010    -0.2760 cd         1 FDB      -0.037300
      9 CAI          3.9010     0.0020    -3.6310 cd         1 FDB      -0.017200
     10 CAJ          1.6560     0.0020    -2.9220 c          1 FDB       0.664100
     11 CAK          3.5050     0.0020    -1.3520 cc         1 FDB      -0.145900
     12 CAL          2.1240     0.0020    -1.5900 cd         1 FDB      -0.225600
     13 HAA         -0.2050     0.6120     0.8700 hc         1 FDB       0.027033
     14 HAAA        -0.5270     0.4020    -0.8570 hc         1 FDB       0.027033
     15 HAAB        -0.3320    -1.0140     0.1850 hc         1 FDB       0.027033
     16 HNAB         5.7390     0.0920    -4.2720 hn         1 FDB       0.215467
     17 HNAA         4.6300     0.7510    -5.2760 hn         1 FDB       0.215467
     18 HAD          2.3100    -0.0140     1.7080 h4         1 FDB       0.173000
     19 HNAF         4.5800     0.0010     0.4450 hn         1 FDB       0.127700
     20 HNAG         2.2610     0.0040    -4.8730 hn         1 FDB       0.186500
     21 HAB3         4.7870    -0.8920    -5.1200 hn         1 FDB       0.215467
@<TRIPOS>BOND
     1     1     8 1   
     2     1    13 1   
     3     1    14 1   
     4     1    15 1   
     5     2     9 1   
     6     2    16 1   
     7     2    17 1   
     8     2    21 1   
     9     3    10 2   
    10     4     6 1   
    11     4     8 2   
    12     4    18 1   
    13     5     9 2   
    14     5    11 1   
    15     6    11 1   
    16     6    19 1   
    17     7     9 1   
    18     7    10 1   
    19     7    20 1   
    20     8    12 1   
    21    10    12 1   
    22    11    12 2   
@<TRIPOS>SUBSTRUCTURE
     1 FDB         1 TEMP              0 ****  ****    0 ROOT
