@<TRIPOS>MOLECULE
molecule
   49    48     1     0     0
SMALL
bcc


@<TRIPOS>ATOM
      1 PA           0.0000     0.0000     0.0000 p5         1 FDF       1.411800
      2 PB          -1.9360    -1.7170    -1.4460 p5         1 FDF       1.306900
      3 C1           2.3870     1.0860     0.5060 c3         1 FDF       0.235600
      4 O1           1.6100     0.0000     0.0000 os         1 FDF      -0.545200
      5 O1A         -0.5370     0.0000     1.5180 o          1 FDF      -0.850500
      6 O1B         -3.0220    -2.0430    -0.3040 o          1 FDF      -0.891167
      7 C2           3.8530     0.7670     0.3580 c2         1 FDF      -0.466200
      8 O2A         -0.4940     1.2070    -0.6980 o          1 FDF      -0.850500
      9 O2B         -2.4170    -0.5920    -2.2790 o          1 FDF      -0.891167
     10 C3           4.6690     0.9500     1.3670 c2         1 FDF      -0.048400
     11 O3A         -0.5360    -1.3150    -0.7580 os         1 FDF      -0.706800
     12 O3B         -1.7240    -3.0170    -2.3720 o          1 FDF      -0.891167
     13 C4           4.1720     1.6080     2.6280 c3         1 FDF      -0.113900
     14 C5           6.1040     0.5020     1.2650 c3         1 FDF      -0.024200
     15 C6           6.9750     1.6790     0.8200 c3         1 FDF      -0.052200
     16 C7           8.4110     1.2310     0.7180 c2         1 FDF      -0.160200
     17 C8           9.0410     1.3080    -0.4280 c2         1 FDF      -0.155400
     18 C9          10.5160     1.0050    -0.4980 c3         1 FDF      -0.031200
     19 C10          8.2920     1.6970    -1.6760 c3         1 FDF      -0.047900
     20 C11         10.7180    -0.4580    -0.8990 c3         1 FDF      -0.047200
     21 C12         12.1930    -0.7600    -0.9700 c2         1 FDF      -0.155200
     22 C13         12.7180    -1.6500    -0.1650 c2         1 FDF      -0.287400
     23 C14         14.1860    -1.9770    -0.2570 c3         1 FDF       0.218600
     24 C15         11.8540    -2.3450     0.8560 c3         1 FDF       0.218600
     25 F1          11.2920    -3.4930     0.2860 f          1 FDF      -0.262800
     26 F2          14.8960    -1.2070     0.6700 f          1 FDF      -0.262800
     27 H1           2.1550     1.2390     1.5530 h1         1 FDF       0.007200
     28 H1A          2.1560     1.9860    -0.0510 h1         1 FDF       0.007200
     29 H2           3.4760     1.7760     0.2370 ha         1 FDF       0.341000
     30 H4           5.0070     1.7960     3.2910 hc         1 FDF       0.037033
     31 H4A          3.6890     2.5460     2.3800 hc         1 FDF       0.037033
     32 H4B          3.4610     0.9550     3.1190 hc         1 FDF       0.037033
     33 H5           6.4410     0.1490     2.2320 hc         1 FDF       0.048200
     34 H5A          6.1820    -0.2990     0.5410 hc         1 FDF       0.048200
     35 H6           6.6370     2.0320    -0.1470 hc         1 FDF       0.047700
     36 H6A          6.8970     2.4800     1.5440 hc         1 FDF       0.047700
     37 H7           8.9510     0.9490     1.6140 ha         1 FDF       0.108000
     38 H9          10.9820     1.6490    -1.2330 hc         1 FDF       0.035200
     39 H9A         10.9670     1.1780     0.4720 hc         1 FDF       0.035200
     40 H10          7.4920     0.9880    -1.8530 hc         1 FDF       0.043033
     41 H10A         8.9700     1.6930    -2.5200 hc         1 FDF       0.043033
     42 H10B         7.8740     2.6890    -1.5520 hc         1 FDF       0.043033
     43 H11         10.2520    -1.1020    -0.1630 hc         1 FDF       0.058700
     44 H11A        10.2670    -0.6320    -1.8690 hc         1 FDF       0.058700
     45 H12         12.8140    -0.2590    -1.7030 ha         1 FDF       0.110000
     46 H14         14.3360    -3.0280    -0.0440 h1         1 FDF       0.039200
     47 H14A        14.5420    -1.7570    -1.2560 h1         1 FDF       0.039200
     48 H15         11.0640    -1.6770     1.1770 h1         1 FDF       0.039200
     49 H15A        12.4590    -2.6250     1.7100 h1         1 FDF       0.039200
@<TRIPOS>BOND
     1     8     1 1
     2    11     1 1
     3     1     5 1
     4     1     4 1
     5     9     2 1
     6     6     2 1
     7    12     2 1
     8     2    11 1
     9     3     4 1
    10     3     7 1
    11     3    27 1
    12     3    28 1
    13     7    10 2
    14     7    29 1
    15    10    13 1
    16    10    14 1
    17    13    30 1
    18    13    31 1
    19    13    32 1
    20    15    14 1
    21    14    33 1
    22    14    34 1
    23    16    15 1
    24    15    35 1
    25    15    36 1
    26    17    16 2
    27    16    37 1
    28    18    17 1
    29    17    19 1
    30    20    18 1
    31    18    38 1
    32    18    39 1
    33    19    40 1
    34    19    41 1
    35    19    42 1
    36    20    21 1
    37    20    43 1
    38    20    44 1
    39    22    21 2
    40    21    45 1
    41    24    22 1
    42    22    23 1
    43    26    23 1
    44    23    46 1
    45    23    47 1
    46    24    25 1
    47    24    48 1
    48    24    49 1
@<TRIPOS>SUBSTRUCTURE
     1 FDF         1 TEMP              0 ****  ****    0 ROOT
