@<TRIPOS>MOLECULE
molecule
   40    40     1     0     0
SMALL
bcc


@<TRIPOS>ATOM
      1 C1           0.0000     0.0000     0.0000 ca         1 FDI      -0.158000
      2 C2           1.3890     0.0000     0.0000 ca         1 FDI      -0.011400
      3 C3           2.0900     0.0000     1.2100 ca         1 FDI      -0.020400
      4 C4           1.3990     0.0110     2.4060 ca         1 FDI      -0.084000
      5 C5           0.0020     0.0160     2.4030 ca         1 FDI      -0.102600
      6 C6          -0.6920     0.0110     1.1900 ca         1 FDI      -0.091000
      7 C10         -0.7400     0.0270     3.6780 c          1 FDI       0.884200
      8 O11         -2.0870     0.0310     3.6730 o          1 FDI      -0.835300
      9 O12         -0.1360     0.0300     4.7310 o          1 FDI      -0.835300
     10 N13          3.4890    -0.0040     1.2080 ns         1 FDI      -0.476100
     11 C14          4.1620    -0.6010     2.2110 c          1 FDI       0.650100
     12 C15          5.6670    -0.5350     2.2530 c3         1 FDI      -0.148700
     13 O16          3.5570    -1.1910     3.0800 o          1 FDI      -0.568100
     14 C17          6.1660    -1.1140     3.5790 c3         1 FDI      -0.070900
     15 C18          7.6940    -1.0470     3.6220 c3         1 FDI      -0.098100
     16 C24          6.2470    -1.3460     1.0930 c3         1 FDI      -0.070900
     17 C26          5.7770    -2.7980     1.2020 c3         1 FDI      -0.098100
     18 N32          2.0860    -0.0110    -1.2080 ns         1 FDI      -0.464100
     19 C33          1.4720     0.3740    -2.3440 c          1 FDI       0.647100
     20 C34          2.1730     0.2220    -3.6700 c3         1 FDI      -0.175100
     21 O38          0.3540     0.8430    -2.3010 o          1 FDI      -0.593100
     22 H1          -0.5400    -0.0260    -0.9390 ha         1 FDI       0.158000
     23 H4           1.9390     0.0910     3.3420 ha         1 FDI       0.176000
     24 H6          -1.7750     0.0100     1.1860 ha         1 FDI       0.160000
     25 H13          3.9900     0.4750     0.4850 hn         1 FDI       0.300500
     26 H15          5.9860     0.4970     2.1670 hc         1 FDI       0.055700
     27 H171         5.7560    -0.5390     4.4000 hc         1 FDI       0.048700
     28 H172         5.8470    -2.1450     3.6650 hc         1 FDI       0.048700
     29 H181         8.1070    -1.9360     3.1610 hc         1 FDI       0.034867
     30 H182         8.0240    -0.9880     4.6520 hc         1 FDI       0.034867
     31 H183         8.0330    -0.1710     3.0840 hc         1 FDI       0.034867
     32 H241         7.3290    -1.3120     1.1340 hc         1 FDI       0.048700
     33 H242         5.9070    -0.9260     0.1540 hc         1 FDI       0.048700
     34 H261         6.5780    -3.4070     1.6050 hc         1 FDI       0.034867
     35 H262         5.5040    -3.1650     0.2200 hc         1 FDI       0.034867
     36 H263         4.9180    -2.8520     1.8590 hc         1 FDI       0.034867
     37 H32          3.0370    -0.3230    -1.2340 hn         1 FDI       0.305500
     38 H341         2.4930    -0.8060    -3.7930 hc         1 FDI       0.053700
     39 H342         3.0370     0.8750    -3.6990 hc         1 FDI       0.053700
     40 H343         1.4930     0.4860    -4.4710 hc         1 FDI       0.053700
@<TRIPOS>BOND
     1     1     2 ar
     2     1     6 ar
     3     1    22 1
     4     2     3 ar
     5     2    18 1
     6     3     4 ar
     7     3    10 1
     8     4     5 ar
     9     4    23 1
    10     5     6 ar
    11     5     7 1
    12     6    24 1
    13     7     8 1
    14     7     9 1
    15    10    11 1
    16    10    25 1
    17    11    12 1
    18    11    13 2
    19    12    14 1
    20    12    16 1
    21    12    26 1
    22    14    15 1
    23    14    27 1
    24    14    28 1
    25    15    29 1
    26    15    30 1
    27    15    31 1
    28    16    17 1
    29    16    32 1
    30    16    33 1
    31    17    34 1
    32    17    35 1
    33    17    36 1
    34    18    19 1
    35    18    37 1
    36    19    20 1
    37    19    21 2
    38    20    38 1
    39    20    39 1
    40    20    40 1
@<TRIPOS>SUBSTRUCTURE
     1 FDI         1 TEMP              0 ****  ****    0 ROOT
