@<TRIPOS>MOLECULE
molecule
   44    45     1     0     0
SMALL
bcc


@<TRIPOS>ATOM
      1 C2           0.0000     0.0000     0.0000 c          1 FDJ       0.785500
      2 C4          -0.0430     0.0000     2.3360 c          1 FDJ       0.595700
      3 C5           1.3730     0.0000     2.3500 cc         1 FDJ      -0.390400
      4 C6           2.0420     0.0000     1.1780 cd         1 FDJ      -0.624400
      5 C7           2.1230     0.0020     3.6580 c3         1 FDJ       0.079100
      6 O2          -0.6110    -0.0220    -1.0510 o          1 FDJ      -0.804500
      7 N1           1.3450     0.0000     0.0000 n          1 FDJ      -0.258000
      8 N3          -0.6930    -0.0010     1.1550 ns         1 FDJ      -0.596500
      9 O4          -0.6490    -0.0040     3.3540 o          1 FDJ      -0.901500
     10 PA           2.3830    -2.8430    -6.7110 p5         1 FDJ       1.346800
     11 PB           2.2580    -1.6730    -9.4700 p5         1 FDJ      -0.222400
     12 PG           2.1490     0.0310   -11.9080 p5         1 FDJ       0.839700
     13 C1'          2.0800    -0.0000    -1.2640 c3         1 FDJ       0.334500
     14 O1A          1.0120    -3.4590    -6.5600 o          1 FDJ      -0.784000
     15 O2B          0.8850    -2.1250    -9.9080 o          1 FDJ      -0.276500
     16 O1G          2.3820    -0.0000   -13.3990 o          1 FDJ      -0.622833
     17 C2'          3.1280    -0.7050    -1.1580 c3         1 FDJ      -0.138400
     18 O2A          3.3700    -3.9080    -7.1250 o          1 FDJ      -0.784000
     19 O1B          2.8890    -2.7420    -8.6100 o          1 FDJ      -0.276500
     20 Cl1          0.7910     0.8980    -9.4240 cl         1 FDJ      -0.180400
     21 O2G          3.1290     0.9830   -11.2650 o          1 FDJ      -0.622833
     22 C3'          3.3280    -1.3310    -2.5040 c3         1 FDJ       0.119100
     23 O3'          4.3790    -0.7300    -3.1550 oh         1 FDJ      -0.602800
     24 O3A          2.3310    -1.6640    -7.8610 os         1 FDJ      -0.066800
     25 C3B          2.2330     0.0420   -10.0870 c3         1 FDJ       0.401300
     26 O3G          1.4640     1.3240   -11.5330 o          1 FDJ      -0.622833
     27 C4'          2.1520    -0.8150    -3.3860 c3         1 FDJ       0.117100
     28 O4'          1.1910    -0.6990    -2.4230 os         1 FDJ      -0.417600
     29 C5'          1.9230    -2.1350    -4.2300 c3         1 FDJ       0.167400
     30 O5'          2.8530    -2.1880    -5.2730 os         1 FDJ      -0.578200
     31 H1           3.1230     0.0770     1.1720 h4         1 FDJ       0.057000
     32 H2           1.9140     0.9200     4.1940 hc         1 FDJ      -0.049633
     33 H3           1.8090    -0.8450     4.2560 hc         1 FDJ      -0.049633
     34 H4           3.1870    -0.0690     3.4640 hc         1 FDJ      -0.049633
     35 H5          -1.6890     0.0960     1.1400 hn         1 FDJ       0.259500
     36 H6           2.3390     1.0110    -1.5530 h2         1 FDJ       0.010700
     37 H9           2.9870    -1.4730    -0.4070 hc         1 FDJ       0.060200
     38 H10          3.9760    -0.0790    -0.9090 hc         1 FDJ       0.060200
     39 H13          3.4590    -2.4070    -2.4830 h1         1 FDJ       0.034700
     40 H14          5.1250    -1.3050    -3.1470 ho         1 FDJ       0.360000
     41 H15          3.1330     0.5530    -9.7700 h1         1 FDJ       0.164700
     42 H16          2.1460     0.0570    -4.0280 h1         1 FDJ       0.060700
     43 H17          0.9200    -2.1330    -4.6390 h1         1 FDJ       0.032700
     44 H18          2.0500    -3.0000    -3.5890 h1         1 FDJ       0.032700
@<TRIPOS>BOND
     1     6     1 2
     2     1     8 1
     3     1     7 1
     4     8     2 1
     5    17    13 1
     6    17    22 1
     7    13     7 1
     8    13    28 1
     9     7     4 1
    10     2     9 2
    11     2     3 1
    12    23    22 1
    13    22    27 1
    14    28    27 1
    15     4     3 2
    16    27    29 1
    17     3     5 1
    18    15    11 1
    19    29    30 1
    20    30    10 1
    21    24    11 1
    22    24    10 1
    23    11    19 1
    24    11    25 1
    25    20    25 1
    26    10    18 1
    27    10    14 1
    28    25    12 1
    29    26    12 1
    30    12    16 1
    31    12    21 1
    32     4    31 1
    33     5    32 1
    34     5    33 1
    35     5    34 1
    36     8    35 1
    37    13    36 1
    38    17    37 1
    39    17    38 1
    40    22    39 1
    41    23    40 1
    42    25    41 1
    43    27    42 1
    44    29    43 1
    45    29    44 1
@<TRIPOS>SUBSTRUCTURE
     1 FDJ         1 TEMP              0 ****  ****    0 ROOT
