@<TRIPOS>MOLECULE
molecule
   24    24     1     0     0
SMALL
bcc


@<TRIPOS>ATOM
      1 OAC          0.0000     0.0000     0.0000 oh         1 FDK      -0.588800
      2 CAJ          1.4290     0.0000     0.0000 c3         1 FDK       0.175300
      3 CAL          1.9370     0.0000     1.4430 c3         1 FDK       0.138100
      4 OAE          1.2610    -1.0140     2.1900 oh         1 FDK      -0.591800
      5 CAK          1.6470     1.3740     2.0600 c3         1 FDK       0.147100
      6 OAD          1.9580     1.3510     3.4540 oh         1 FDK      -0.587800
      7 CAI          2.5180     2.4160     1.3550 c3         1 FDK       0.163300
      8 OAB          3.8820     2.2280     1.7390 oh         1 FDK      -0.586800
      9 CAF          2.3960     2.2690    -0.1340 c2         1 FDK      -0.149200
     10 CAH          1.9270     1.2170    -0.7240 c2         1 FDK      -0.133400
     11 CAG          1.8770     1.2130    -2.2290 c3         1 FDK       0.179600
     12 OAA          2.3910     2.4510    -2.7260 oh         1 FDK      -0.612800
     13 H1          -0.3140    -0.7920    -0.4040 ho         1 FDK       0.403000
     14 H2           1.7920    -0.8870    -0.5050 h1         1 FDK       0.037700
     15 H3           3.0050    -0.1840     1.4530 h1         1 FDK       0.067700
     16 H4           1.8650    -1.7080     2.3960 ho         1 FDK       0.403000
     17 H5           0.6010     1.6210     1.9190 h1         1 FDK       0.066700
     18 H6           1.2340     1.7050     3.9440 ho         1 FDK       0.401000
     19 H7           2.1930     3.4080     1.6440 h1         1 FDK       0.042700
     20 H8           4.2890     3.0670     1.8740 ho         1 FDK       0.402000
     21 H9           2.7210     3.0960    -0.7530 ha         1 FDK       0.154000
     22 H10          2.4780     0.3950    -2.6080 h1         1 FDK       0.031200
     23 H11          0.8520     1.0910    -2.5570 h1         1 FDK       0.031200
     24 H12          2.3760     2.4430    -3.6680 ho         1 FDK       0.406000
@<TRIPOS>BOND
     1     1     2 1
     2    12    11 1
     3    11    10 1
     4    10     2 1
     5    10     9 2
     6     2     3 1
     7     9     7 1
     8     5     7 1
     9     5     3 1
    10     5     6 1
    11     7     8 1
    12     3     4 1
    13     1    13 1
    14     2    14 1
    15     3    15 1
    16     4    16 1
    17     5    17 1
    18     6    18 1
    19     7    19 1
    20     8    20 1
    21     9    21 1
    22    11    22 1
    23    11    23 1
    24    12    24 1
@<TRIPOS>SUBSTRUCTURE
     1 FDK         1 TEMP              0 ****  ****    0 ROOT
