@<TRIPOS>MOLECULE
FDM
   33    32     1     0     0
SMALL
bcc


@<TRIPOS>ATOM
      1 N1        689.1120 -293.5360  337.5340 n         1 FDM     -0.262000
      2 C6        687.8310 -293.3740  337.0900 c1        1 FDM     -0.163000
      3 C2        689.7900 -294.7700  337.5150 c2        1 FDM      0.327000
      4 O2        690.9780 -294.8970  337.9320 o         1 FDM     -0.488000
      5 N3        689.1000 -295.8780  337.0120 n         1 FDM     -0.371000
      6 C4        687.7640 -295.7850  336.5340 c2        1 FDM      0.349000
      7 O4        687.2590 -296.8560  336.1130 o         1 FDM     -0.468000
      8 C5        687.1490 -294.4760  336.5900 c2        1 FDM     -0.416000
      9 C7        685.7680 -294.3490  336.0950 c3        1 FDM     -0.079000
     10 O4'      -507.0870  217.9040 -249.7080 os        1 FDM     -0.272000
     11 F        -508.1760  215.7110 -247.5430 f         1 FDM     -0.188000
     12 C1'      -506.9310  218.7320 -248.5490 c3        1 FDM     -0.022000
     13 C2'      -507.6860  218.0830 -247.3950 c3        1 FDM     -0.212000
     14 C3'      -508.5340  216.9600 -248.0270 c3        1 FDM      0.021000
     15 C4'      -508.2430  217.0790 -249.5520 c3        1 FDM     -0.064000
     16 C5'      -509.4580  217.6570 -250.2460 c2        1 FDM      0.227000
     17 P1       -511.8660  218.8530 -249.9300 p3        1 FDM      2.434000
     18 OP2      -512.3780  220.2280 -249.8740 o         1 FDM     -1.139333
     19 OP1      -511.2120  218.2320 -248.7460 o         1 FDM     -1.139333
     20 OP3      -512.1370  217.9530 -251.0670 o         1 FDM     -1.139333
     21 HC61      689.6150 -292.7630  337.8940 hn        1 FDM      0.229000
     22 HN31      689.5700 -296.7520  336.9970 hn        1 FDM      0.218000
     23 HC71      685.3670 -293.3290  336.3120 hc        1 FDM      0.040667
     24 HC72      685.1010 -295.1080  336.5760 hc        1 FDM      0.040667
     25 HC73      685.7220 -294.5180  334.9880 hc        1 FDM      0.040667
     26 H1'1     -507.3420  219.7460 -248.7930 h1        1 FDM      0.086000
     27 H2'1     -505.8290  218.7930 -248.3690 h1        1 FDM      0.086000
     28 H2'2     -508.3590  218.8230 -246.8970 hc        1 FDM      0.101500
     29 H3'1     -506.9850  217.6650 -246.6340 hc        1 FDM      0.101500
     30 H4'1     -509.6380  217.1260 -247.8270 h1        1 FDM      0.202000
     31 H5'1     -507.9700  216.0890 -250.0060 h1        1 FDM      0.119000
     32 H5'2     -510.2550  216.9170 -250.4980 h4        1 FDM      0.161000
     33 O5'      -509.5700  218.8590 -250.5170 o         1 FDM     -0.363000
@<TRIPOS>BOND
     1    1    2 1
     2    1    3 1
     3    1   21 1
     4    2    8 1
     5    3    4 1
     6    3    5 1
     7    5    6 1
     8    5   22 1
     9    6    7 1
    10    6    8 1
    11    8    9 1
    12    9   23 1
    13    9   24 1
    14    9   25 1
    15   10   12 1
    16   10   15 1
    17   11   14 1
    18   12   13 1
    19   12   26 1
    20   12   27 1
    21   13   14 1
    22   13   28 1
    23   13   29 1
    24   14   15 1
    25   14   30 1
    26   15   16 1
    27   15   31 1
    28   16   32 1
    29   16   33 1
    30   17   18 1
    31   17   19 1
    32   17   20 1
@<TRIPOS>SUBSTRUCTURE
     1 FDM         1 TEMP              0 ****  ****    0 ROOT
