@<TRIPOS>MOLECULE
FDN
   35    37     1     0     0
SMALL
bcc


@<TRIPOS>ATOM
      1 F13          0.0000     0.0000     0.0000 f          1 FDN      -0.111900
      2 C13          1.3510     0.0000     0.0000 ca         1 FDN       0.168900
      3 C12          2.0430     0.0000     1.1990 ca         1 FDN      -0.171000
      4 C11          3.4270     0.0000     1.1970 ca         1 FDN       0.146900
      5 F11          4.1040     0.0050     2.3650 f          1 FDN      -0.119900
      6 C10          4.1170    -0.0040    -0.0040 ca         1 FDN      -0.147000
      7 C9           3.4250    -0.0100    -1.1990 ca         1 FDN      -0.027000
      8 C8           2.0430    -0.0100    -1.1990 ca         1 FDN      -0.171300
      9 C5           1.2890    -0.0170    -2.5050 c3         1 FDN       0.130100
     10 C7           0.4140    -1.2670    -2.6110 c3         1 FDN      -0.003100
     11 O4           2.2140     0.0610    -3.6300 os         1 FDN      -0.353900
     12 C3           1.9250     1.1920    -4.2950 c          1 FDN       0.767600
     13 O3           2.5140     1.5580    -5.2930 o          1 FDN      -0.619500
     14 N2           0.9150     1.8690    -3.7360 n          1 FDN      -0.078800
     15 C6           0.4470     1.2360    -2.6420 c          1 FDN       0.598500
     16 O6          -0.4590     1.5930    -1.9200 o          1 FDN      -0.563500
     17 N1           0.4100     3.0810    -4.2240 nu         1 FDN      -0.262600
     18 C21         -0.3940     3.0930    -5.3670 ca         1 FDN       0.053600
     19 C22         -0.6880     1.9050    -6.0220 ca         1 FDN      -0.161000
     20 C23         -1.4880     1.9200    -7.1490 ca         1 FDN      -0.051000
     21 C24         -1.9860     3.1170    -7.6300 ca         1 FDN      -0.143000
     22 C25         -1.6890     4.3020    -6.9810 ca         1 FDN      -0.051000
     23 C26         -0.8950     4.2950    -5.8520 ca         1 FDN      -0.161000
     24 H12          1.5030     0.0450     2.1370 ha         1 FDN       0.141000
     25 H10          5.2000    -0.0040    -0.0060 ha         1 FDN       0.128000
     26 H9           3.9660    -0.0150    -2.1380 ha         1 FDN       0.132000
     27 H71          0.8840    -2.0840    -2.0760 hc         1 FDN       0.031033
     28 H72          0.2980    -1.5390    -3.6540 hc         1 FDN       0.031033
     29 H73         -0.5590    -1.0650    -2.1810 hc         1 FDN       0.031033
     30 HN1          0.6340     3.9400    -3.7600 hn         1 FDN       0.317800
     31 H22         -0.2990     0.9670    -5.6460 ha         1 FDN       0.106500
     32 H23         -1.7200     0.9930    -7.6600 ha         1 FDN       0.101000
     33 H24         -2.6110     3.1260    -8.5150 ha         1 FDN       0.105000
     34 H25         -2.0810     5.2380    -7.3610 ha         1 FDN       0.101000
     35 H26         -0.6640     5.2240    -5.3450 ha         1 FDN       0.106500
@<TRIPOS>BOND
     1     1     2 1   
     2     2     3 ar  
     3     2     8 ar  
     4     3     4 ar  
     5     3    24 1   
     6     4     5 1   
     7     4     6 ar  
     8     6     7 ar  
     9     6    25 1   
    10     7     8 ar  
    11     7    26 1   
    12     8     9 1   
    13     9    10 1   
    14     9    11 1   
    15     9    15 1   
    16    10    27 1   
    17    10    28 1   
    18    10    29 1   
    19    11    12 1   
    20    12    13 2   
    21    12    14 1   
    22    14    15 1   
    23    14    17 1   
    24    15    16 2   
    25    17    18 1   
    26    17    30 1   
    27    18    19 ar  
    28    18    23 ar  
    29    19    20 ar  
    30    19    31 1   
    31    20    21 ar  
    32    20    32 1   
    33    21    22 ar  
    34    21    33 1   
    35    22    23 ar  
    36    22    34 1   
    37    23    35 1   
@<TRIPOS>SUBSTRUCTURE
     1 FDN         1 TEMP              0 ****  ****    0 ROOT
