@<TRIPOS>MOLECULE
FDR
   24    26     1     0     0
SMALL
bcc


@<TRIPOS>ATOM
      1 CAA          0.0000     0.0000     0.0000 c3         1 FDR      -0.025400
      2 OAB          4.0110     0.9220    -2.2720 o          1 FDR      -0.675500
      3 CAC          8.0790     0.0000     0.0000 c3         1 FDR      -0.032400
      4 CAD          7.5730     0.0000     1.4560 c3         1 FDR       0.090900
      5 CAE          6.8820     0.6260    -0.7440 c3         1 FDR       0.059900
      6 NAF          2.1780    -0.1880     1.0410 nc         1 FDR      -0.500100
      7 NAG          2.1120     0.4810    -1.1840 ns         1 FDR       0.014600
      8 SAH          4.6690    -0.4420     2.3630 ss         1 FDR      -0.207800
      9 CAI          1.5030     0.0980    -0.0320 cd         1 FDR       0.282900
     10 CAJ          6.0520    -0.0530     1.3420 cc         1 FDR      -0.030400
     11 CAK          5.6650     0.2940     0.1200 cd         1 FDR      -0.051300
     12 CAL          3.4560     0.5780    -1.2430 c          1 FDR       0.622100
     13 CAM          3.5280    -0.1160     1.0680 cc         1 FDR       0.275300
     14 CAN          4.2140     0.2690    -0.0720 cd         1 FDR      -0.226600
     15 HAA         -0.4300     0.9680    -0.2280 hc         1 FDR       0.024700
     16 HAAA        -0.3200    -0.3150     0.9860 hc         1 FDR       0.024700
     17 HAAB        -0.3300    -0.7240    -0.7350 hc         1 FDR       0.024700
     18 HAC          8.9620     0.6190    -0.1020 hc         1 FDR       0.022200
     19 HACA         8.2610    -1.0110    -0.3450 hc         1 FDR       0.022200
     20 HAD          7.8800     0.9080     1.9600 hc         1 FDR       0.019700
     21 HADA         7.9410    -0.8730     1.9810 hc         1 FDR       0.019700
     22 HAE          7.0070     1.6990    -0.8190 hc         1 FDR       0.030200
     23 HAEA         6.7770     0.1820    -1.7260 hc         1 FDR       0.030200
     24 HNAG         1.5610     0.6920    -1.9930 hn         1 FDR       0.183500
@<TRIPOS>BOND
     1     1     9 1   
     2     1    15 1   
     3     1    16 1   
     4     1    17 1   
     5     2    12 2   
     6     3     4 1   
     7     3     5 1   
     8     3    18 1   
     9     3    19 1   
    10     4    10 1   
    11     4    20 1   
    12     4    21 1   
    13     5    11 1   
    14     5    22 1   
    15     5    23 1   
    16     6     9 2   
    17     6    13 1   
    18     7     9 1   
    19     7    12 1   
    20     7    24 1   
    21     8    10 1   
    22     8    13 1   
    23    10    11 2   
    24    11    14 1   
    25    12    14 1   
    26    13    14 2   
@<TRIPOS>SUBSTRUCTURE
     1 FDR         1 TEMP              0 ****  ****    0 ROOT
