@<TRIPOS>MOLECULE
FDS
   38    41     1     0     0
SMALL
bcc


@<TRIPOS>ATOM
      1 C1         -0.1120    0.0120    0.0040 ca        1 FDS      0.126100
      2 O1         -0.8920   -0.0310   -1.1340 oh        1 FDS     -0.508600
      3 C2          1.2640    0.2560   -0.0520 ca        1 FDS     -0.245500
      4 C3          1.9790    0.2770    1.1550 ca        1 FDS      0.140600
      5 O2          3.3420    0.5110    1.0150 os        1 FDS     -0.250200
      6 C4          4.0190    0.8490    2.1850 ca        1 FDS      0.140600
      7 C5          5.3010    1.3850    1.9860 ca        1 FDS     -0.245500
      8 C6          6.0400    1.7450    3.1180 ca        1 FDS      0.126100
      9 O3          7.3120    2.2730    3.0170 oh        1 FDS     -0.508600
     10 C7          5.5190    1.5940    4.4130 ca        1 FDS     -0.184000
     11 C8          4.2450    1.0610    4.5770 ca        1 FDS     -0.053000
     12 C9          3.4850    0.6680    3.4660 ca        1 FDS     -0.129300
     13 C10         2.1250    0.0790    3.6710 c3        1 FDS      0.073200
     14 C11         1.3510    0.0610    2.3900 ca        1 FDS     -0.129300
     15 C12        -0.0310   -0.1660    2.4050 ca        1 FDS     -0.053000
     16 C13        -0.7690   -0.1950    1.2270 ca        1 FDS     -0.184000
     17 C14         2.2240   -1.2990    4.2680 ca        1 FDS     -0.070300
     18 C15         2.7230   -2.3540    3.4920 ca        1 FDS     -0.131000
     19 C16         2.8240   -3.6370    4.0210 ca        1 FDS     -0.161000
     20 C17         2.4180   -3.8800    5.3340 ca        1 FDS     -0.149000
     21 C18         1.9190   -2.8370    6.1070 ca        1 FDS     -0.115000
     22 C19         1.8230   -1.5380    5.5900 ca        1 FDS     -0.102600
     23 C20         1.2810   -0.4480    6.5050 c         1 FDS      0.905200
     24 O4          1.9770    0.5980    6.6700 o         1 FDS     -0.827800
     25 O5          0.1680   -0.6470    7.0620 o         1 FDS     -0.827800
     26 HO1        -0.3110    0.1220   -1.8930 ho        1 FDS      0.408500
     27 H2          1.7820    0.4240   -1.0030 ha        1 FDS      0.136500
     28 H5          5.6970    1.5100    0.9720 ha        1 FDS      0.136500
     29 HO3         7.5380    2.3140    2.0780 ho        1 FDS      0.408500
     30 H7          6.1200    1.8990    5.2800 ha        1 FDS      0.144500
     31 H8          3.7940    0.9370    5.5870 ha        1 FDS      0.192000
     32 H10         1.5770    0.7430    4.4140 hc        1 FDS      0.129700
     33 H12        -0.5320   -0.3320    3.3750 ha        1 FDS      0.192000
     34 H13        -1.8510   -0.3790    1.2390 ha        1 FDS      0.144500
     35 H15         3.0370   -2.1580    2.4560 ha        1 FDS      0.118000
     36 H16         3.2210   -4.4550    3.4050 ha        1 FDS      0.106000
     37 H17         2.4910   -4.8930    5.7530 ha        1 FDS      0.106000
     38 H18         1.5750   -3.0150    7.1380 ha        1 FDS      0.139000
@<TRIPOS>BOND
     1    1    2 1   
     2    1    3 ar  
     3    1   16 ar  
     4    2   26 1   
     5    3    4 ar  
     6    3   27 1   
     7    4    5 1   
     8    4   14 ar  
     9    5    6 1   
    10    6    7 ar  
    11    6   12 ar  
    12    7    8 ar  
    13    7   28 1   
    14    8    9 1   
    15    8   10 ar  
    16    9   29 1   
    17   10   11 ar  
    18   10   30 1   
    19   11   12 ar  
    20   11   31 1   
    21   12   13 1   
    22   13   14 1   
    23   13   17 1   
    24   13   32 1   
    25   14   15 ar  
    26   15   16 ar  
    27   15   33 1   
    28   16   34 1   
    29   17   18 ar  
    30   17   22 ar  
    31   18   19 ar  
    32   18   35 1   
    33   19   20 ar  
    34   19   36 1   
    35   20   21 ar  
    36   20   37 1   
    37   21   22 ar  
    38   21   38 1   
    39   22   23 1   
    40   23   24 1   
    41   23   25 1   
@<TRIPOS>SUBSTRUCTURE
     1 FDS         1 TEMP              0 ****  ****    0 ROOT
