@<TRIPOS>MOLECULE
molecule
   38    41     1     0     0
SMALL
bcc


@<TRIPOS>ATOM
      1 C1           0.0000     0.0000     0.0000 ca         1 FDS       0.106100
      2 O1          -0.6800    -0.0010    -1.1770 oh         1 FDS      -0.530100
      3 C2           1.3820     0.0000     0.0000 ca         1 FDS      -0.187500
      4 C3           2.0900     0.0000     1.2030 ca         1 FDS       0.120100
      5 O2           3.4320    -0.0250     1.1430 os         1 FDS      -0.217200
      6 C4           4.0500     0.5560     2.1880 ca         1 FDS       0.120100
      7 C5           5.3190     1.0980     1.9790 ca         1 FDS      -0.187500
      8 C6           6.0180     1.6700     3.0250 ca         1 FDS       0.106100
      9 O3           7.2520     2.1950     2.8100 oh         1 FDS      -0.530100
     10 C7           5.4590     1.7090     4.2940 ca         1 FDS      -0.182000
     11 C8           4.2010     1.1810     4.5030 ca         1 FDS      -0.065000
     12 C9           3.5010     0.6130     3.4570 ca         1 FDS      -0.114300
     13 C10          2.1220     0.0580     3.7070 c3         1 FDS       0.063200
     14 C11          1.3840     0.0190     2.3930 ca         1 FDS      -0.114300
     15 C12          0.0010     0.0150     2.3940 ca         1 FDS      -0.065000
     16 C13         -0.6960     0.0030     1.2010 ca         1 FDS      -0.182000
     17 C14          2.2300    -1.3360     4.2700 ca         1 FDS      -0.066300
     18 C15          2.7560    -2.3530     3.5010 ca         1 FDS      -0.134000
     19 C16          2.8560    -3.6330     4.0170 ca         1 FDS      -0.155000
     20 C17          2.4350    -3.9010     5.3070 ca         1 FDS      -0.153000
     21 C18          1.9140    -2.8920     6.0890 ca         1 FDS      -0.100000
     22 C19          1.8100    -1.5980     5.5750 ca         1 FDS      -0.088600
     23 C20          1.2510    -0.5130     6.4070 c          1 FDS       0.883200
     24 O4           1.7590     0.5900     6.3870 o          1 FDS      -0.836300
     25 O5           0.1780    -0.7450     7.1860 o          1 FDS      -0.836300
     26 HO1         -0.8130    -0.8900    -1.4620 ho         1 FDS       0.410000
     27 H2           1.9200     0.0010    -0.9400 ha         1 FDS       0.138000
     28 H5           5.7590     1.0690     0.9890 ha         1 FDS       0.138000
     29 HO3          7.1690     3.0980     2.5490 ho         1 FDS       0.410000
     30 H7           6.0520     2.0470     5.1360 ha         1 FDS       0.136000
     31 H8           3.7590     1.2150     5.4920 ha         1 FDS       0.179500
     32 H10          1.5930     0.6980     4.4020 hc         1 FDS       0.141700
     33 H12         -0.5370     0.0170     3.3340 ha         1 FDS       0.179500
     34 H13         -1.7740     0.1130     1.2030 ha         1 FDS       0.136000
     35 H15          3.0870    -2.1500     2.4890 ha         1 FDS       0.121000
     36 H16          3.2670    -4.4290     3.4080 ha         1 FDS       0.105000
     37 H17          2.5170    -4.9060     5.7050 ha         1 FDS       0.106000
     38 H18          1.5870    -3.1020     7.1000 ha         1 FDS       0.144000
@<TRIPOS>BOND
     1     1     2 1
     2     1     3 ar
     3     1    16 ar
     4     2    26 1
     5     3     4 ar
     6     3    27 1
     7     4     5 1
     8     4    14 ar
     9     5     6 1
    10     6     7 ar
    11     6    12 ar
    12     7     8 ar
    13     7    28 1
    14     8     9 1
    15     8    10 ar
    16     9    29 1
    17    10    11 ar
    18    10    30 1
    19    11    12 ar
    20    11    31 1
    21    12    13 1
    22    13    14 1
    23    13    17 1
    24    13    32 1
    25    14    15 ar
    26    15    16 ar
    27    15    33 1
    28    16    34 1
    29    17    18 ar
    30    17    22 ar
    31    18    19 ar
    32    18    35 1
    33    19    20 ar
    34    19    36 1
    35    20    21 ar
    36    20    37 1
    37    21    22 ar
    38    21    38 1
    39    22    23 1
    40    23    24 1
    41    23    25 1
@<TRIPOS>SUBSTRUCTURE
     1 FDS         1 TEMP              0 ****  ****    0 ROOT
