@<TRIPOS>MOLECULE
FDT
   27    28     1     0     0
SMALL
bcc


@<TRIPOS>ATOM
      1 C1           0.0000     0.0000     0.0000 c2         1 FDT       0.091000
      2 C2           1.3230     0.0000     0.0000 ce         1 FDT      -0.416400
      3 C3           1.8770     0.0020    -1.2860 c          1 FDT       0.685100
      4 C5           2.3450     0.0000     1.0850 c3         1 FDT       0.187300
      5 S6           1.6230     0.3870     2.6930 ss         1 FDT      -0.429700
      6 O7           3.0800    -0.1020    -1.4290 o          1 FDT      -0.642100
      7 N8          -0.7770    -0.1300     1.0870 nu         1 FDT      -0.175800
      8 C9          -0.5430    -1.0960     2.0790 ce         1 FDT      -0.044200
      9 C10          3.4030     1.0250     0.7640 cc         1 FDT       0.332600
     10 C11          0.5020    -0.9570     2.8810 c2         1 FDT      -0.017400
     11 C12         -1.4140    -2.2020     2.2210 c          1 FDT       0.956800
     12 O13         -1.1810    -3.1250     3.1780 o          1 FDT      -0.869800
     13 C14          4.7410     0.8240     0.7260 cd         1 FDT      -0.425600
     14 O15         -2.3710    -2.3220     1.4820 o          1 FDT      -0.869800
     15 N16          3.2040     2.3110     0.4580 nc         1 FDT      -0.303000
     16 N17          4.3430     2.8710     0.2510 nd         1 FDT      -0.404800
     17 N18          5.2910     2.0140     0.3950 na         1 FDT       0.578400
     18 C19          6.7230     2.2830     0.2350 c3         1 FDT       0.006600
     19 H1          -0.4970     0.1140    -0.9560 h4         1 FDT       0.090000
     20 H3           1.2310     0.0480    -2.1540 h4         1 FDT      -0.059800
     21 H5           2.8030    -0.9810     1.1350 h1         1 FDT       0.052700
     22 HN8         -1.5560     0.4890     1.1940 hn         1 FDT       0.284800
     23 H11          0.6690    -1.6820     3.6680 h4         1 FDT       0.167000
     24 H14          5.2650    -0.1040     0.9170 h4         1 FDT       0.159000
     25 H191         7.1400     1.5980    -0.4930 h1         1 FDT       0.022700
     26 H192         6.8630     3.3020    -0.1060 h1         1 FDT       0.022700
     27 H193         7.2250     2.1480     1.1860 h1         1 FDT       0.022700
@<TRIPOS>BOND
     1     1     2 2   
     2     1     7 1   
     3     1    19 1   
     4     2     3 1   
     5     2     4 1   
     6     3     6 2   
     7     3    20 1   
     8     4     5 1   
     9     4     9 1   
    10     4    21 1   
    11     5    10 1   
    12     7     8 1   
    13     7    22 1   
    14     8    10 2   
    15     8    11 1   
    16     9    13 2   
    17     9    15 1   
    18    10    23 1   
    19    11    12 1   
    20    11    14 1   
    21    13    17 1   
    22    13    24 1   
    23    15    16 2   
    24    16    17 1   
    25    17    18 1   
    26    18    25 1   
    27    18    26 1   
    28    18    27 1   
@<TRIPOS>SUBSTRUCTURE
     1 FDT         1 TEMP              0 ****  ****    0 ROOT
