@<TRIPOS>MOLECULE
molecule
   30    31     1     0     0
SMALL
bcc


@<TRIPOS>ATOM
      1 O01          0.0000     0.0000     0.0000 oh         1 FDU      -0.601800
      2 C03          1.4290     0.0000     0.0000 c3         1 FDU       0.150400
      3 C06          1.9400     0.0000     1.4430 c3         1 FDU       0.136100
      4 O08          1.6000    -1.2390     2.1020 os         1 FDU      -0.379600
      5 C09          3.4880     0.0120     1.4730 c3         1 FDU       0.091100
      6 O11          3.9900     1.3490     1.4000 oh         1 FDU      -0.595800
      7 C13          3.7910    -0.6170     2.8550 c3         1 FDU       0.114600
      8 F15          4.8780    -1.4930     2.7670 f          1 FDU      -0.221300
      9 C16          2.5050    -1.3880     3.2090 c3         1 FDU       0.295500
     10 N18          2.8140    -2.8050     3.4130 n          1 FDU      -0.356000
     11 C19          3.2620    -3.5360     2.3810 c          1 FDU       0.823500
     12 O20          3.4030    -3.0030     1.2970 o          1 FDU      -0.650500
     13 N21          3.5610    -4.8400     2.5100 ns         1 FDU      -0.556500
     14 C23          3.4150    -5.4580     3.7000 c          1 FDU       0.709700
     15 O24          3.6850    -6.6390     3.8240 o          1 FDU      -0.597500
     16 C25          2.9240    -4.6770     4.8450 cc         1 FDU      -0.110900
     17 C26          2.6440    -3.3530     4.6520 cd         1 FDU       0.047600
     18 C28          2.7510    -5.2850     6.1290 cg         1 FDU      -0.141300
     19 C29          2.5950    -5.7700     7.1870 c1         1 FDU      -0.115500
     20 H1          -0.3140    -0.3570    -0.8140 ho         1 FDU       0.409000
     21 H2           1.7900    -0.8850    -0.5110 h1         1 FDU       0.042700
     22 H3           1.7900     0.8840    -0.5110 h1         1 FDU       0.042700
     23 H4           1.5430     0.8440     1.9950 h1         1 FDU       0.077700
     24 H5           3.8910    -0.6020     0.6770 h1         1 FDU       0.092700
     25 H6           4.7040     1.3830     0.7860 ho         1 FDU       0.416000
     26 H7           3.9790     0.1580     3.5880 h1         1 FDU       0.086700
     27 H8           2.0610    -0.9700     4.1040 h2         1 FDU       0.081700
     28 H9           3.8800    -5.3520     1.7110 hn         1 FDU       0.367500
     29 H10          2.3790    -2.7240     5.4930 h4         1 FDU       0.171000
     30 H11          2.4340    -6.2080     8.1640 ha         1 FDU       0.171500
@<TRIPOS>BOND
     1     6     5 1
     2     7     8 1
     3     7     5 1
     4     7     9 1
     5    12    11 2
     6     5     3 1
     7    11    10 1
     8    11    13 1
     9     9    10 1
    10     9     4 1
    11    10    17 1
    12    13    14 1
    13     3     4 1
    14     3     2 1
    15     2     1 1
    16    17    16 2
    17    14    15 2
    18    14    16 1
    19    16    18 1
    20    18    19 3
    21     1    20 1
    22     2    21 1
    23     2    22 1
    24     3    23 1
    25     5    24 1
    26     6    25 1
    27     7    26 1
    28     9    27 1
    29    13    28 1
    30    17    29 1
    31    19    30 1
@<TRIPOS>SUBSTRUCTURE
     1 FDU         1 TEMP              0 ****  ****    0 ROOT
