@<TRIPOS>MOLECULE
FDU
   30    31     1     0     0
SMALL
bcc


@<TRIPOS>ATOM
      1 O01          0.0000     0.0000     0.0000 oh         1 FDU      -0.586800
      2 C03          1.4290     0.0000     0.0000 c3         1 FDU       0.224400
      3 C06          1.9400     0.0000     1.4430 c3         1 FDU       0.167100
      4 O08          1.6000    -1.2390     2.1020 os         1 FDU      -0.367600
      5 C09          3.4880     0.0120     1.4730 c3         1 FDU       0.130100
      6 O11          3.9900     1.3490     1.4000 oh         1 FDU      -0.574800
      7 C13          3.7910    -0.6170     2.8550 c3         1 FDU       0.119600
      8 F15          4.8780    -1.4930     2.7670 f          1 FDU      -0.216300
      9 C16          2.5050    -1.3880     3.2090 c3         1 FDU       0.212500
     10 N18          2.8140    -2.8050     3.4130 n          1 FDU       0.054000
     11 C19          3.2620    -3.5360     2.3810 c          1 FDU       0.599500
     12 O20          3.4030    -3.0030     1.2970 o          1 FDU      -0.699500
     13 N21          3.5610    -4.8400     2.5100 ns         1 FDU      -0.123500
     14 C23          3.4150    -5.4580     3.7000 c          1 FDU       0.617700
     15 O24          3.6850    -6.6390     3.8240 o          1 FDU      -0.637500
     16 C25          2.9240    -4.6770     4.8450 cc         1 FDU      -0.073900
     17 C26          2.6440    -3.3530     4.6520 cd         1 FDU      -0.097400
     18 C28          2.7510    -5.2850     6.1290 cg         1 FDU      -0.148300
     19 C29          2.5950    -5.7700     7.1870 c1         1 FDU      -0.086500
     20 H1          -0.3140    -0.3570    -0.8140 ho         1 FDU       0.394000
     21 H2           1.7900    -0.8850    -0.5110 h1         1 FDU       0.003200
     22 H3           1.7900     0.8840    -0.5110 h1         1 FDU       0.003200
     23 H4           1.5430     0.8440     1.9950 h1         1 FDU       0.040700
     24 H5           3.8910    -0.6020     0.6770 h1         1 FDU       0.059700
     25 H6           4.7040     1.3830     0.7860 ho         1 FDU       0.402000
     26 H7           3.9790     0.1580     3.5880 h1         1 FDU       0.053700
     27 H8           2.0610    -0.9700     4.1040 h2         1 FDU       0.041700
     28 H9           3.8800    -5.3520     1.7110 hn         1 FDU       0.208500
     29 H10          2.3790    -2.7240     5.4930 h4         1 FDU       0.139000
     30 H11          2.4340    -6.2080     8.1640 ha         1 FDU       0.139500
@<TRIPOS>BOND
     1     1     2 1   
     2     1    20 1   
     3     2     3 1   
     4     2    21 1   
     5     2    22 1   
     6     3     4 1   
     7     3     5 1   
     8     3    23 1   
     9     4     9 1   
    10     5     6 1   
    11     5     7 1   
    12     5    24 1   
    13     6    25 1   
    14     7     8 1   
    15     7     9 1   
    16     7    26 1   
    17     9    10 1   
    18     9    27 1   
    19    10    11 1   
    20    10    17 1   
    21    11    12 2   
    22    11    13 1   
    23    13    14 1   
    24    13    28 1   
    25    14    15 2   
    26    14    16 1   
    27    16    17 2   
    28    16    18 1   
    29    17    29 1   
    30    18    19 3   
    31    19    30 1   
@<TRIPOS>SUBSTRUCTURE
     1 FDU         1 TEMP              0 ****  ****    0 ROOT
