@<TRIPOS>MOLECULE
molecule
   47    48     1     0     0
SMALL
bcc


@<TRIPOS>ATOM
      1 N1           0.0000     0.0000     0.0000 n          1 FDV      -0.331000
      2 C2           1.3450     0.0000     0.0000 c          1 FDV       0.806500
      3 O2           1.9450     0.0020    -1.0580 o          1 FDV      -0.660500
      4 N3           2.0380     0.0000     1.1550 ns         1 FDV      -0.571500
      5 C4           1.3880    -0.0010     2.3360 c          1 FDV       0.689700
      6 O4           2.0140    -0.0020     3.3820 o          1 FDV      -0.741500
      7 C5          -0.0280    -0.0030     2.3510 cc         1 FDV      -0.348400
      8 C7          -0.7780    -0.0050     3.6580 c3         1 FDV       0.021100
      9 C6          -0.6960    -0.0020     1.1780 cd         1 FDV      -0.112400
     10 PA           0.4650    -3.9650    -5.4150 p5         1 FDV       1.435800
     11 PB          -0.3340    -6.7460    -6.0580 p5         1 FDV       1.279600
     12 PG          -1.8360    -9.2970    -6.3680 p5         1 FDV       1.107700
     13 C1'         -0.7260     0.0070    -1.2730 c3         1 FDV       0.317500
     14 O1A          2.0170    -4.1390    -5.0240 o          1 FDV      -0.852000
     15 O2B          1.0310    -7.3140    -6.1340 o          1 FDV      -0.801000
     16 O1G         -0.4770   -10.0440    -6.8030 o          1 FDV      -0.825833
     17 C2'         -0.3940     1.2850    -2.0740 c3         1 FDV      -0.153400
     18 O2A          0.3560    -3.5340    -6.8260 o          1 FDV      -0.852000
     19 O1B         -0.8780    -6.4560    -7.5450 o          1 FDV      -0.801000
     20 C4B         -2.7300    -7.2230    -4.8120 c3         1 FDV      -0.025100
     21 O2G         -2.8130   -10.3450    -5.6340 o          1 FDV      -0.825833
     22 C3'         -0.3470     0.8060    -3.5430 c3         1 FDV       0.106100
     23 O3'         -1.3410     1.4760    -4.3190 oh         1 FDV      -0.609800
     24 O3A         -0.2970    -5.3710    -5.2220 os         1 FDV      -0.722800
     25 C3B         -1.4400    -7.9330    -5.2260 c3         1 FDV      -0.403100
     26 O3G         -2.5080    -8.7550    -7.5710 o          1 FDV      -0.825833
     27 C4'         -0.6560    -0.7050    -3.4540 c3         1 FDV       0.131100
     28 O4'         -0.2800    -1.0810    -2.1120 os         1 FDV      -0.351600
     29 C5'          0.1770    -1.4800    -4.4780 c3         1 FDV       0.241400
     30 O5'         -0.2070    -2.8560    -4.4610 os         1 FDV      -0.591200
     31 H1           3.0380     0.0000     1.1360 hn         1 FDV       0.333500
     32 H2          -1.8430    -0.0450     3.4630 hc         1 FDV       0.012367
     33 H3          -0.4850    -0.8700     4.2410 hc         1 FDV       0.012367
     34 H4          -0.5450     0.8980     4.2090 hc         1 FDV       0.012367
     35 H5          -1.7790    -0.0030     1.1690 h4         1 FDV       0.131000
     36 H6          -1.7940    -0.0640    -1.1050 h2         1 FDV       0.054700
     37 H9           0.5690     1.6790    -1.7740 hc         1 FDV       0.049700
     38 H10         -1.1730     2.0260    -1.9420 hc         1 FDV       0.049700
     39 H12         -3.4740    -7.9590    -4.5320 hc         1 FDV      -0.000633
     40 H13         -2.5300    -6.5730    -3.9690 hc         1 FDV      -0.000633
     41 H14         -3.1010    -6.6340    -5.6420 hc         1 FDV      -0.000633
     42 H16          0.6400     0.9660    -3.9600 h1         1 FDV       0.056700
     43 H17         -0.9300     2.1350    -4.8540 ho         1 FDV       0.383000
     44 H18         -0.9480    -8.3300    -4.3460 hc         1 FDV       0.046700
     45 H19         -1.7130    -0.8810    -3.6100 h1         1 FDV       0.064700
     46 H20          1.2280    -1.3950    -4.2280 h1         1 FDV       0.033200
     47 H21          0.0070    -1.0690    -5.4660 h1         1 FDV       0.033200
@<TRIPOS>BOND
     1     3     2 2
     2     2     4 1
     3     2     1 1
     4     4     5 1
     5    17    13 1
     6    17    22 1
     7    13     1 1
     8    13    28 1
     9     1     9 1
    10     5     6 2
    11     5     7 1
    12    23    22 1
    13    22    27 1
    14    28    27 1
    15     9     7 2
    16    27    29 1
    17     7     8 1
    18    15    11 1
    19    29    30 1
    20    30    10 1
    21    24    11 1
    22    24    10 1
    23    11    19 1
    24    11    25 1
    25    10    18 1
    26    10    14 1
    27    20    25 1
    28    25    12 1
    29    12    26 1
    30    12    16 1
    31    12    21 1
    32     4    31 1
    33     8    32 1
    34     8    33 1
    35     8    34 1
    36     9    35 1
    37    13    36 1
    38    17    37 1
    39    17    38 1
    40    20    39 1
    41    20    40 1
    42    20    41 1
    43    22    42 1
    44    23    43 1
    45    25    44 1
    46    27    45 1
    47    29    46 1
    48    29    47 1
@<TRIPOS>SUBSTRUCTURE
     1 FDV         1 TEMP              0 ****  ****    0 ROOT
