@<TRIPOS>MOLECULE
molecule
   44    45     1     0     0
SMALL
bcc


@<TRIPOS>ATOM
      1 C2           0.0000     0.0000     0.0000 c          1 FDY       0.806500
      2 C4           2.0260     0.0000     1.1640 c          1 FDY       0.694700
      3 C5           1.3100     0.0010     2.3860 cc         1 FDY      -0.346400
      4 C6          -0.0390     0.0020     2.3570 cd         1 FDY      -0.090400
      5 O4           3.2430    -0.0010     1.1650 o          1 FDY      -0.731500
      6 C7           2.0460     0.0030     3.7010 c3         1 FDY       0.018100
      7 N3           1.3460     0.0000     0.0000 ns         1 FDY      -0.571500
      8 O2          -0.5990    -0.0060    -1.0580 o          1 FDY      -0.651500
      9 N1          -0.6910     0.0000     1.1540 n          1 FDY      -0.334000
     10 C1'         -2.1560     0.0020     1.1220 c3         1 FDY       0.315500
     11 C2'         -2.6780     1.2780     0.4250 c3         1 FDY      -0.154400
     12 C3'         -3.9110     0.7940    -0.3690 c3         1 FDY       0.106100
     13 O3'         -5.0910     1.4590     0.0840 oh         1 FDY      -0.609800
     14 O4'         -2.6410    -1.0880     0.3070 os         1 FDY      -0.349600
     15 C4'         -3.9880    -0.7170    -0.0600 c3         1 FDY       0.131100
     16 C5'         -4.4350    -1.4930    -1.3010 c3         1 FDY       0.241400
     17 O5'         -4.6120    -2.8700    -0.9630 os         1 FDY      -0.591200
     18 PA          -5.0790    -3.9810    -2.0300 p5         1 FDY       1.434800
     19 O1A         -3.9460    -4.1500    -3.1610 o          1 FDY      -0.851000
     20 O2A         -6.3470    -3.5560    -2.6620 o          1 FDY      -0.851000
     21 O3A         -5.3000    -5.3880    -1.2780 os         1 FDY      -0.719800
     22 PB          -6.0300    -6.7670    -1.6770 p5         1 FDY       1.249600
     23 O2B         -5.3910    -7.3310    -2.8860 o          1 FDY      -0.807000
     24 O1B         -7.5860    -6.4830    -1.9740 o          1 FDY      -0.807000
     25 C3B         -5.8800    -7.9530    -0.3000 c3         1 FDY      -0.161800
     26 F2B         -4.5280    -8.2000    -0.0410 f          1 FDY      -0.278300
     27 PG          -6.7070    -9.5140    -0.7510 p5         1 FDY       1.086700
     28 O3G         -8.1380    -9.2540    -1.0250 o          1 FDY      -0.815833
     29 O2G         -6.0120   -10.1280    -2.0670 o          1 FDY      -0.815833
     30 O1G         -6.5750   -10.5620     0.4640 o          1 FDY      -0.815833
     31 H1          -0.6040     0.0020     3.2810 h4         1 FDY       0.134000
     32 H2           2.5440    -0.9500     3.8380 hc         1 FDY       0.014700
     33 H3           2.7810     0.7980     3.7030 hc         1 FDY       0.014700
     34 H4           1.3410     0.1600     4.5090 hc         1 FDY       0.014700
     35 H5           1.8450    -0.0010    -0.8680 hn         1 FDY       0.336500
     36 H6          -2.5610    -0.0700     2.1250 h2         1 FDY       0.054700
     37 H7          -2.9690     2.0180     1.1610 hc         1 FDY       0.049200
     38 H8          -1.9270     1.6760    -0.2470 hc         1 FDY       0.049200
     39 H9          -3.7620     0.9550    -1.4300 h1         1 FDY       0.057700
     40 H10         -5.3350     2.1260    -0.5370 ho         1 FDY       0.383000
     41 H11         -4.6640    -0.8960     0.7670 h1         1 FDY       0.064700
     42 H12         -3.6800    -1.4050    -2.0730 h1         1 FDY       0.033700
     43 H13         -5.3710    -1.0870    -1.6630 h1         1 FDY       0.033700
     44 H16         -6.3480    -7.5390     0.5850 h1         1 FDY       0.027700
@<TRIPOS>BOND
     1     8     1 2
     2     1     7 1
     3     1     9 1
     4     7     2 1
     5    11    10 1
     6    11    12 1
     7    10     9 1
     8    10    14 1
     9     9     4 1
    10    13    12 1
    11     2     5 2
    12     2     3 1
    13    12    15 1
    14    14    15 1
    15     4     3 2
    16    15    16 1
    17     3     6 1
    18    23    22 1
    19    16    17 1
    20    17    18 1
    21    22    21 1
    22    22    24 1
    23    22    25 1
    24    26    25 1
    25    21    18 1
    26    25    27 1
    27    18    20 1
    28    18    19 1
    29    28    27 1
    30    27    30 1
    31    27    29 1
    32     4    31 1
    33     6    32 1
    34     6    33 1
    35     6    34 1
    36     7    35 1
    37    10    36 1
    38    11    37 1
    39    11    38 1
    40    12    39 1
    41    13    40 1
    42    15    41 1
    43    16    42 1
    44    16    43 1
    45    25    44 1
@<TRIPOS>SUBSTRUCTURE
     1 FDY         1 TEMP              0 ****  ****    0 ROOT
