@<TRIPOS>MOLECULE
molecule
   27    28     1     0     0
SMALL
bcc


@<TRIPOS>ATOM
      1 C01          0.0000     0.0000     0.0000 ca         1 FDZ      -0.073000
      2 C02          1.3810     0.0000     0.0000 ca         1 FDZ      -0.179000
      3 C03          2.0760     0.0000     1.2030 ca         1 FDZ       0.093600
      4 C04          1.3820     0.0000     2.4040 ca         1 FDZ      -0.137000
      5 C05         -0.0040     0.0010     2.3990 ca         1 FDZ       0.143100
      6 C06         -0.6940     0.0010     1.1950 ca         1 FDZ      -0.213000
      7 O07         -0.6870     0.0010     3.5740 os         1 FDZ      -0.333900
      8 C08         -2.1140     0.0020     3.4950 c3         1 FDZ       0.795700
      9 F09         -2.5440    -1.1410     2.8100 f          1 FDZ      -0.203967
     10 F10         -2.6530     0.0020     4.7860 f          1 FDZ      -0.203967
     11 F11         -2.5430     1.1440     2.8110 f          1 FDZ      -0.203967
     12 N12          3.4760    -0.0020     1.2020 ns         1 FDZ      -0.481100
     13 C13          4.1510     0.6700     2.1570 c          1 FDZ       0.776100
     14 O14          3.5460     1.2050     3.0660 o          1 FDZ      -0.613100
     15 N15          5.4950     0.7460     2.1050 ns         1 FDZ      -0.436100
     16 C16          6.1930     1.4410     3.0930 cc         1 FDZ       0.000200
     17 C17          7.5360     1.6170     3.1960 cd         1 FDZ       0.223200
     18 N18          7.9370     2.3180     4.2300 nd         1 FDZ      -0.309000
     19 N19          7.0580     2.7710     5.0460 nc         1 FDZ      -0.152100
     20 S20          5.5450     2.2750     4.4560 ss         1 FDZ       0.185200
     21 H1          -0.5410     0.0000    -0.9390 ha         1 FDZ       0.142000
     22 H2           1.9220    -0.0010    -0.9380 ha         1 FDZ       0.135000
     23 H3           1.9220    -0.0000     3.3430 ha         1 FDZ       0.185000
     24 H4          -1.7770     0.0020     1.1920 ha         1 FDZ       0.152000
     25 H5           3.9750    -0.5300     0.5140 hn         1 FDZ       0.326500
     26 H6           8.2300     1.2080     2.4710 h4         1 FDZ       0.048100
     27 H10          5.9910     0.3260     1.3440 hn         1 FDZ       0.333500
@<TRIPOS>BOND
     1     1     2 ar
     2     1     6 ar
     3     2     3 ar
     4     3     4 ar
     5     3    12 1
     6     4     5 ar
     7     5     6 ar
     8     5     7 1
     9     7     8 1
    10     8     9 1
    11     8    10 1
    12     8    11 1
    13    12    13 1
    14    13    14 2
    15    13    15 1
    16    15    16 1
    17    16    17 2
    18    16    20 1
    19    17    18 1
    20    18    19 2
    21    19    20 1
    22     1    21 1
    23     2    22 1
    24     4    23 1
    25     6    24 1
    26    12    25 1
    27    17    26 1
    28    15    27 1
@<TRIPOS>SUBSTRUCTURE
     1 FDZ         1 TEMP              0 ****  ****    0 ROOT
