@<TRIPOS>MOLECULE
FE1
   59    62     1     0     0
SMALL
bcc


@<TRIPOS>ATOM
      1 OAZ          0.0000     0.0000     0.0000 o          1 FE1      -0.659100
      2 CAU          1.2160     0.0000     0.0000 c          1 FE1       0.627700
      3 NAV          1.8900     0.0000     1.1670 n          1 FE1      -0.153800
      4 CAW          3.3520    -0.1380     1.1870 c3         1 FE1       0.030500
      5 CAX          3.7250    -1.2980     2.1170 c3         1 FE1      -0.033900
      6 CBA          1.1760     0.1390     2.4440 c3         1 FE1       0.030500
      7 CBB          1.5730    -1.0240     3.3590 c3         1 FE1      -0.033900
      8 CBC          3.0970    -1.0650     3.4930 c3         1 FE1      -0.095700
      9 CBD          3.4900    -2.1860     4.4200 c          1 FE1       0.701100
     10 OBG          4.1990    -3.0790     4.0220 o          1 FE1      -0.584000
     11 OBE          3.0520    -2.1910     5.6890 os         1 FE1      -0.425900
     12 CBF          3.4300    -3.2720     6.5820 c3         1 FE1       0.277700
     13 CAT          1.9540     0.0010    -1.2780 ca         1 FE1      -0.220600
     14 CAS          1.4260    -0.6590    -2.3920 ca         1 FE1      -0.021000
     15 CAR          2.1160    -0.6570    -3.5820 ca         1 FE1      -0.202500
     16 CAJ          3.3390     0.0020    -3.6780 ca         1 FE1       0.101600
     17 CAK          3.8670     0.6600    -2.5710 ca         1 FE1      -0.202500
     18 CAL          3.1790     0.6670    -1.3790 ca         1 FE1      -0.021000
     19 N10          4.0340     0.0030    -4.8820 nh         1 FE1      -0.375000
     20 CAB          5.3740     0.5900    -4.9540 c3         1 FE1       0.206100
     21 C9           3.4260    -0.5840    -6.0790 c3         1 FE1       0.140500
     22 C6           2.6480     0.4740    -6.8170 ca         1 FE1       0.145300
     23 N5           1.4050     0.7320    -6.4690 nb         1 FE1      -0.472000
     24 C4A          0.7230     1.6690    -7.1200 ca         1 FE1      -0.008000
     25 C8A          1.3300     2.3760    -8.1880 ca         1 FE1       0.602000
     26 N8           2.5910     2.0960    -8.5280 nb         1 FE1      -0.559000
     27 C7           3.2500     1.1680    -7.8670 ca         1 FE1       0.357900
     28 C4          -0.6600     2.0040    -6.7770 ca         1 FE1       0.530900
     29 N4          -1.3160     1.3580    -5.7530 nv         1 FE1      -0.441500
     30 N3          -1.2580     2.9500    -7.4870 nb         1 FE1      -0.791000
     31 C2          -0.6280     3.5740    -8.4760 ca         1 FE1       0.774900
     32 N1           0.6160     3.3110    -8.8270 nb         1 FE1      -0.754000
     33 N2          -1.3110     4.5510    -9.1760 nv         1 FE1      -0.480500
     34 HAW1         3.7100    -0.3470     0.1860 h1         1 FE1       0.039200
     35 HAW2         3.7980     0.7780     1.5540 h1         1 FE1       0.039200
     36 HAX1         4.8030    -1.3470     2.2160 hc         1 FE1       0.034700
     37 HAX2         3.3520    -2.2260     1.7020 hc         1 FE1       0.034700
     38 HBA1         0.1070     0.1110     2.2660 h1         1 FE1       0.039200
     39 HBA2         1.4480     1.0770     2.9110 h1         1 FE1       0.039200
     40 HBB1         1.2240    -1.9550     2.9310 hc         1 FE1       0.034700
     41 HBB2         1.1300    -0.8800     4.3370 hc         1 FE1       0.034700
     42 HBC          3.4480    -0.1210     3.8920 hc         1 FE1       0.046700
     43 HBF1         3.0740    -4.2130     6.1810 h1         1 FE1       0.000033
     44 HBF2         4.5090    -3.3040     6.6740 h1         1 FE1       0.000033
     45 HBF3         2.9890    -3.1050     7.5580 h1         1 FE1       0.000033
     46 HAS          0.4750    -1.1720    -2.3180 ha         1 FE1       0.115500
     47 HAR          1.7080    -1.1680    -4.4450 ha         1 FE1       0.123000
     48 HAK          4.8180     1.1740    -2.6490 ha         1 FE1       0.123000
     49 HAL          3.5900     1.1790    -0.5170 ha         1 FE1       0.115500
     50 HAB1         5.3110     1.6560    -4.7690 h1         1 FE1       0.007700
     51 HAB2         5.7910     0.4190    -5.9390 h1         1 FE1       0.007700
     52 HAB3         6.0100     0.1310    -4.2070 h1         1 FE1       0.007700
     53 H91          4.2030    -0.9760    -6.7240 h1         1 FE1       0.034700
     54 H92          2.7590    -1.3860    -5.7890 h1         1 FE1       0.034700
     55 H7           4.2720     0.9380    -8.1440 h4         1 FE1      -0.016900
     56 HN41        -0.8590     0.6230    -5.2500 hn         1 FE1       0.280800
     57 HN42        -2.2600     1.6060    -5.5290 hn         1 FE1       0.280800
     58 HN21        -2.2570     4.7710    -8.9320 hn         1 FE1       0.275800
     59 HN22        -0.8610     5.0370    -9.9250 hn         1 FE1       0.275800
@<TRIPOS>BOND
     1     1     2 2   
     2     2     3 1   
     3     2    13 1   
     4     3     4 1   
     5     3     6 1   
     6     4     5 1   
     7     4    34 1   
     8     4    35 1   
     9     5     8 1   
    10     5    36 1   
    11     5    37 1   
    12     6     7 1   
    13     6    38 1   
    14     6    39 1   
    15     7     8 1   
    16     7    40 1   
    17     7    41 1   
    18     8     9 1   
    19     8    42 1   
    20     9    10 2   
    21     9    11 1   
    22    11    12 1   
    23    12    43 1   
    24    12    44 1   
    25    12    45 1   
    26    13    14 ar  
    27    13    18 ar  
    28    14    15 ar  
    29    14    46 1   
    30    15    16 ar  
    31    15    47 1   
    32    16    17 ar  
    33    16    19 1   
    34    17    18 ar  
    35    17    48 1   
    36    18    49 1   
    37    19    20 1   
    38    19    21 1   
    39    20    50 1   
    40    20    51 1   
    41    20    52 1   
    42    21    22 1   
    43    21    53 1   
    44    21    54 1   
    45    22    23 ar  
    46    22    27 ar  
    47    23    24 ar  
    48    24    25 ar  
    49    24    28 ar  
    50    25    26 ar  
    51    25    32 ar  
    52    26    27 ar  
    53    27    55 1   
    54    28    29 1   
    55    28    30 ar  
    56    29    56 1   
    57    29    57 1   
    58    30    31 ar  
    59    31    32 ar  
    60    31    33 1   
    61    33    58 1   
    62    33    59 1   
@<TRIPOS>SUBSTRUCTURE
     1 FE1         1 TEMP              0 ****  ****    0 ROOT
