@<TRIPOS>MOLECULE
FE3
   23    23     1     0     0
SMALL
bcc


@<TRIPOS>ATOM
      1 N            0.0000     0.0000     0.0000 nz         1 FE3       0.080400
      2 CA           1.4690     0.0000     0.0000 c3         1 FE3      -0.065200
      3 CB           1.9790     0.0000     1.4420 c3         1 FE3       0.045900
      4 CG           3.4860     0.0000     1.4410 ca         1 FE3      -0.187300
      5 CD1          4.1750     1.1970     1.3370 ca         1 FE3      -0.030600
      6 ClD1         3.3020     2.6920     1.2060 cl         1 FE3      -0.088400
      7 CD2          4.1760    -1.1940     1.5510 ca         1 FE3      -0.110000
      8 CE1          5.5560     1.2040     1.3360 ca         1 FE3      -0.065000
      9 CE2          5.5540    -1.2010     1.5530 ca         1 FE3      -0.053000
     10 CZ           6.2570     0.0010     1.4410 ca         1 FE3      -0.047600
     11 CF           7.7340     0.0000     1.4420 c          1 FE3       0.956200
     12 OF1          8.4060    -1.1620     1.5420 o          1 FE3      -0.852800
     13 OF2          8.3420     1.0480     1.3490 o          1 FE3      -0.852800
     14 HN          -0.3340     0.8230     0.4610 hn         1 FE3       0.216133
     15 H1A          1.8300     0.8840    -0.5110 hx         1 FE3       0.091700
     16 H2A          1.8300    -0.8850    -0.5110 hx         1 FE3       0.091700
     17 H1B          1.6180     0.8840     1.9530 hc         1 FE3       0.028200
     18 H2B          1.6190    -0.8850     1.9530 hc         1 FE3       0.028200
     19 HD2          3.6310    -2.1270     1.6380 ha         1 FE3       0.089000
     20 HE1          6.0950     2.1400     1.2520 ha         1 FE3       0.148000
     21 HE2          6.0920    -2.1380     1.6370 ha         1 FE3       0.146000
     22 HNA         -0.3340    -0.8110     0.4820 hn         1 FE3       0.216133
     23 HN3         -0.3340    -0.0120    -0.9440 hn         1 FE3       0.216133
@<TRIPOS>BOND
     1     1     2 1   
     2     1    14 1   
     3     1    22 1   
     4     1    23 1   
     5     2     3 1   
     6     2    15 1   
     7     2    16 1   
     8     3     4 1   
     9     3    17 1   
    10     3    18 1   
    11     4     5 ar  
    12     4     7 ar  
    13     5     6 1   
    14     5     8 ar  
    15     7     9 ar  
    16     7    19 1   
    17     8    10 ar  
    18     8    20 1   
    19     9    10 ar  
    20     9    21 1   
    21    10    11 1   
    22    11    12 1   
    23    11    13 1   
@<TRIPOS>SUBSTRUCTURE
     1 FE3         1 TEMP              0 ****  ****    0 ROOT
