@<TRIPOS>MOLECULE
molecule
   23    23     1     0     0
SMALL
bcc


@<TRIPOS>ATOM
      1 N            0.0000     0.0000     0.0000 nz         1 FE3      -0.812600
      2 CA           1.4690     0.0000     0.0000 c3         1 FE3       0.086800
      3 CB           1.9790     0.0000     1.4420 c3         1 FE3      -0.041100
      4 CG           3.4860     0.0000     1.4410 ca         1 FE3      -0.162300
      5 CD1          4.1750     1.1970     1.3370 ca         1 FE3       0.019400
      6 ClD1         3.3020     2.6920     1.2060 cl         1 FE3      -0.161400
      7 CD2          4.1760    -1.1940     1.5510 ca         1 FE3      -0.135000
      8 CE1          5.5560     1.2040     1.3360 ca         1 FE3      -0.089000
      9 CE2          5.5540    -1.2010     1.5530 ca         1 FE3      -0.085000
     10 CZ           6.2570     0.0010     1.4410 ca         1 FE3      -0.053600
     11 CF           7.7340     0.0000     1.4420 c          1 FE3       0.870200
     12 OF1          8.4060    -1.1620     1.5420 o          1 FE3      -0.803800
     13 OF2          8.3420     1.0480     1.3490 o          1 FE3      -0.803800
     14 HN          -0.3340     0.8230     0.4610 hn         1 FE3       0.448133
     15 H1A          1.8300     0.8840    -0.5110 hx         1 FE3       0.117200
     16 H2A          1.8300    -0.8850    -0.5110 hx         1 FE3       0.117200
     17 H1B          1.6180     0.8840     1.9530 hc         1 FE3       0.060700
     18 H2B          1.6190    -0.8850     1.9530 hc         1 FE3       0.060700
     19 HD2          3.6310    -2.1270     1.6380 ha         1 FE3       0.113000
     20 HE1          6.0950     2.1400     1.2520 ha         1 FE3       0.180000
     21 HE2          6.0920    -2.1380     1.6370 ha         1 FE3       0.178000
     22 HNA         -0.3340    -0.8110     0.4820 hn         1 FE3       0.448133
     23 HN3         -0.3340    -0.0120    -0.9440 hn         1 FE3       0.448133
@<TRIPOS>BOND
     1     1    14 1
     2     1     2 1
     3     1    22 1
     4    16     2 1
     5     2    15 1
     6     2     3 1
     7     4     3 1
     8     3    18 1
     9     3    17 1
    10     5     4 ar
    11     7     4 ar
    12     8     5 ar
    13     5     6 1
    14     9     7 ar
    15     7    19 1
    16    20     8 1
    17    10     8 ar
    18    10     9 ar
    19    21     9 1
    20    11    10 1
    21    12    11 1
    22    11    13 1
    23    23     1 1
@<TRIPOS>SUBSTRUCTURE
     1 FE3         1 TEMP              0 ****  ****    0 ROOT
