@<TRIPOS>MOLECULE
molecule
   69    73     1     0     0
SMALL
bcc


@<TRIPOS>ATOM
      1 C4           0.0000     0.0000     0.0000 ca         1 FE7      -0.092800
      2 C14         -4.9960     0.4520     0.7230 ca         1 FE7      -0.099000
      3 C5           1.4020     0.0000     0.0000 ca         1 FE7       0.057600
      4 C6           2.0830     0.0000     1.2110 ca         1 FE7      -0.157000
      5 C11         -2.8490     0.1560    -1.0010 ca         1 FE7      -0.104800
      6 C7           1.3820     0.0010     2.4000 ca         1 FE7      -0.109000
      7 C8           0.7960    -0.0010    -2.1700 c          1 FE7       0.720700
      8 C9          -0.4100    -0.0000    -1.4210 cc         1 FE7      -0.219400
      9 C10         -1.7060    -0.0010    -1.9200 cf         1 FE7       0.310800
     10 C12         -2.8970     1.2390    -0.1180 ca         1 FE7      -0.094000
     11 C13         -3.9690     1.3790     0.7380 ca         1 FE7      -0.129000
     12 N1           1.8370    -0.0000    -1.3210 ns         1 FE7      -0.455100
     13 N2          -1.9230    -0.1490    -3.2660 nu         1 FE7      -0.671400
     14 C3          -0.7030    -0.0050     1.2000 ca         1 FE7      -0.071000
     15 N3          -3.6190     4.7720    -6.8390 n3         1 FE7      -0.723600
     16 O2           0.8740    -0.0020    -3.3870 o          1 FE7      -0.620500
     17 C2          -0.0090     0.0010     2.4000 ca         1 FE7       0.080600
     18 N           -0.7080    -0.0040     3.6130 nu         1 FE7      -0.774500
     19 S           -1.4780    -1.3800     4.1200 s6         1 FE7       1.325900
     20 O           -1.9970    -1.0400     5.3980 o          1 FE7      -0.627300
     21 O1          -2.3440    -1.7130     3.0430 o          1 FE7      -0.627300
     22 C1          -0.1530    -2.6080     4.2750 c3         1 FE7      -0.226600
     23 C           -0.7580    -3.9680     4.6360 c3         1 FE7      -0.072100
     24 C16         -3.8910    -0.7760    -1.0100 ca         1 FE7      -0.094000
     25 C15         -4.9560    -0.6220    -0.1480 ca         1 FE7      -0.129000
     26 C17         -2.5880     0.8520    -3.9800 ca         1 FE7       0.189600
     27 C22         -2.8800     2.0650    -3.3700 ca         1 FE7      -0.184500
     28 C21         -3.5320     3.0540    -4.0800 ca         1 FE7      -0.079000
     29 C20         -3.8960     2.8370    -5.3970 ca         1 FE7      -0.120300
     30 C19         -3.6070     1.6290    -6.0060 ca         1 FE7      -0.079000
     31 C18         -2.9550     0.6370    -5.3020 ca         1 FE7      -0.184500
     32 C23         -4.6080     3.9180    -6.1680 c3         1 FE7       0.214100
     33 C28         -4.2710     5.6870    -7.7860 c3         1 FE7       0.161800
     34 C27         -3.2050     6.4570    -8.5680 c3         1 FE7      -0.077400
     35 C26         -2.3290     7.2450    -7.5890 c3         1 FE7      -0.082400
     36 C25         -1.7010     6.2750    -6.5850 c3         1 FE7      -0.077400
     37 C24         -2.8110     5.5100    -5.8600 c3         1 FE7       0.161800
     38 H2           3.1660     0.0000     1.2220 ha         1 FE7       0.136000
     39 H3           1.9190     0.0050     3.3400 ha         1 FE7       0.136000
     40 H5          -2.0930     1.9650    -0.1060 ha         1 FE7       0.138500
     41 H6          -4.0070     2.2170     1.4220 ha         1 FE7       0.135000
     42 H7           2.7980    -0.0010    -1.6020 hn         1 FE7       0.340500
     43 H8          -1.7860    -0.0050     1.1970 ha         1 FE7       0.176000
     44 H10         -0.7080     0.8120     4.1930 hn         1 FE7       0.462800
     45 H11          0.3780    -2.6880     3.3340 h1         1 FE7       0.099200
     46 H12          0.5350    -2.3010     5.0530 h1         1 FE7       0.099200
     47 H13         -1.3070    -3.8830     5.5660 hc         1 FE7       0.050700
     48 H14         -1.4300    -4.2850     3.8470 hc         1 FE7       0.050700
     49 H15          0.0350    -4.6970     4.7490 hc         1 FE7       0.050700
     50 H16         -3.8610    -1.6180    -1.6910 ha         1 FE7       0.138500
     51 H17         -5.7650    -1.3440    -0.1540 ha         1 FE7       0.135000
     52 H18         -2.5950     2.2360    -2.3390 ha         1 FE7       0.135500
     53 H19         -3.7600     4.0000    -3.6050 ha         1 FE7       0.133000
     54 H20         -3.8930     1.4620    -7.0380 ha         1 FE7       0.133000
     55 H21         -2.7290    -0.3080    -5.7810 ha         1 FE7       0.135500
     56 H22         -5.2010     4.5170    -5.4870 h1         1 FE7       0.036700
     57 H23         -5.2570     3.4660    -6.9090 h1         1 FE7       0.036700
     58 H24         -4.8800     5.1160    -8.4760 h1         1 FE7       0.033200
     59 H25         -4.8930     6.3870    -7.2410 h1         1 FE7       0.033200
     60 H26         -2.5890     5.7590    -9.1210 hc         1 FE7       0.048450
     61 H27         -3.6870     7.1440    -9.2530 hc         1 FE7       0.048450
     62 H28         -1.5460     7.7550    -8.1370 hc         1 FE7       0.038700
     63 H29         -2.9390     7.9670    -7.0610 hc         1 FE7       0.038700
     64 H30         -1.0650     5.5730    -7.1110 hc         1 FE7       0.048450
     65 H31         -1.1160     6.8320    -5.8640 hc         1 FE7       0.048450
     66 H32         -3.4420     6.2120    -5.3280 h1         1 FE7       0.033200
     67 H33         -2.3680     4.8120    -5.1600 h1         1 FE7       0.033200
     68 H4          -1.6410    -0.9900    -3.7290 hn         1 FE7       0.466800
     69 H1          -5.8360     0.5680     1.3980 ha         1 FE7       0.134000
@<TRIPOS>BOND
     1    35    34 1
     2    35    36 1
     3    34    33 1
     4    36    37 1
     5    33    15 1
     6    37    15 1
     7    15    32 1
     8     2    11 ar
     9     2    25 ar
    10    32    29 1
    11    11    10 ar
    12    28    29 ar
    13    28    27 ar
    14    25    24 ar
    15    29    30 ar
    16    27    26 ar
    17    10     5 ar
    18    24     5 ar
    19    20    19 2
    20     5     9 1
    21    30    31 ar
    22    21    19 2
    23    26    31 ar
    24    26    13 1
    25    19    22 1
    26    19    18 1
    27    22    23 1
    28     9    13 1
    29     9     8 2
    30    18    17 1
    31    14    17 ar
    32    14     1 ar
    33     8     1 1
    34     8     7 1
    35    17     6 ar
    36     1     3 ar
    37     7    16 2
    38     7    12 1
    39     6     4 ar
    40     3    12 1
    41     3     4 ar
    42     2    69 1
    43     4    38 1
    44     6    39 1
    45    10    40 1
    46    11    41 1
    47    12    42 1
    48    14    43 1
    49    18    44 1
    50    22    45 1
    51    22    46 1
    52    23    47 1
    53    23    48 1
    54    23    49 1
    55    24    50 1
    56    25    51 1
    57    27    52 1
    58    28    53 1
    59    30    54 1
    60    31    55 1
    61    32    56 1
    62    32    57 1
    63    33    58 1
    64    33    59 1
    65    34    60 1
    66    34    61 1
    67    35    62 1
    68    35    63 1
    69    36    64 1
    70    36    65 1
    71    37    66 1
    72    37    67 1
    73    13    68 1
@<TRIPOS>SUBSTRUCTURE
     1 FE7         1 TEMP              0 ****  ****    0 ROOT
