@<TRIPOS>MOLECULE
FEB
   95    89     1     0     0
SMALL
bcc


@<TRIPOS>ATOM
      1 N1        613.0610  226.7780 -455.6620 n3        1 FEB     -0.368000
      2 C2        614.1640  226.2830 -456.4140 c3        1 FEB     -0.067000
      3 C3        123.3370  235.5610  356.3120 c3        1 FEB      0.122000
      4 O4        122.6000  234.5690  356.9370 oh        1 FEB     -0.315000
      5 C5        615.4990  226.0720 -455.6800 c3        1 FEB     -0.208000
      6 C6        616.2330  227.3840 -455.3990 c3        1 FEB     -0.201000
      7 C7        617.0760  227.3600 -454.2480 c2        1 FEB      0.262000
      8 C8        616.8670  227.9910 -456.6370 c3        1 FEB     -0.228000
      9 N9        123.1070  230.9050  349.7800 n         1 FEB     -0.375000
     10 C10       121.7100  231.0610  349.4620 c3        1 FEB     -0.036000
     11 C11       120.9940  232.0610  350.3700 c2        1 FEB      0.213000
     12 O12       121.5220  232.6230  351.3300 o         1 FEB     -0.328000
     13 C13       120.8900  229.7530  349.5050 c3        1 FEB     -0.168000
     14 C14       121.2930  228.8250  348.3750 c3        1 FEB     -0.180000
     15 C15       120.2570  227.7680  348.1470 c2        1 FEB      0.258000
     16 O16       119.1880  227.5800  348.6970 o         1 FEB     -0.147000
     17 N17       120.5870  226.7710  347.0450 n4        1 FEB     -0.153000
     18 N18       126.0430  231.9130  349.1520 n         1 FEB     -0.366000
     19 C19       125.5230  230.5860  349.2480 c3        1 FEB     -0.032000
     20 O21       123.6920  229.9700  347.7700 o         1 FEB     -0.400000
     21 C22       121.5570  234.4030  354.3180 c3        1 FEB     -0.259000
     22 C23       123.0430  234.3390  354.2180 c2        1 FEB      0.312000
     23 O24       123.8600  234.9160  355.1220 os        1 FEB     -0.229000
     24 N25       123.6960  233.7170  353.2490 n3        1 FEB     -0.235000
     25 C26      -730.6470 -618.8990   50.7780 c2        1 FEB     -0.182000
     26 C27       332.2660  193.5910-1833.8100 c2        1 FEB      0.277000
     27 C28      -730.3170 -617.9240   48.5290 c2        1 FEB     -0.094000
     28 C30      -727.6770 -620.6710   42.3420 c2        1 FEB      0.263000
     29 C31      -727.8840 -620.7200   43.7550 c3        1 FEB     -0.284000
     30 C32      -729.0330 -619.8790   44.2810 c3        1 FEB     -0.169000
     31 C33      -729.0380 -619.8690   45.7950 c3        1 FEB     -0.162000
     32 C34      -730.2070 -619.0560   46.3210 c3        1 FEB     -0.122000
     33 C35      -730.2190 -619.0460   47.8030 c2        1 FEB     -0.198000
     34 C36       126.6020  234.1760  349.9710 c3        1 FEB     -0.247000
     35 O37       331.5640  194.6660-1833.7970 oh        1 FEB     -0.062000
     36 O49       125.1060  232.6520  351.1020 o         1 FEB     -0.471000
     37 HN1       119.9350  232.2530  350.0840 h4        1 FEB      0.134000
     38 H2        614.3410  226.9820 -457.2830 h1        1 FEB      0.122000
     39 H3        122.7700  236.4850  356.0340 h2        1 FEB      0.151500
     40 H3A       612.6930  226.1290 -455.0020 hn        1 FEB      0.168000
     41 HO4       121.7000  234.8890  357.1000 ho        1 FEB      0.241000
     42 H5        613.8700  225.2790 -456.8430 h1        1 FEB      0.122000
     43 H5A       616.1610  225.4420 -456.3320 hc        1 FEB      0.119000
     44 H6        615.3240  225.5160 -454.7220 hc        1 FEB      0.119000
     45 H7        616.8580  226.6960 -453.3870 ha        1 FEB      0.184500
     46 H7A       617.9610  228.0240 -454.1690 ha        1 FEB      0.184500
     47 H7B       615.4240  228.1410 -455.0170 hc        1 FEB      0.249000
     48 H8        617.6000  227.2740 -457.0830 hc        1 FEB      0.124333
     49 H8A       617.3930  228.9470 -456.3960 hc        1 FEB      0.124333
     50 H8B       616.0790  228.2040 -457.4030 hc        1 FEB      0.124333
     51 HN9       123.4350  231.3600  350.6090 hn        1 FEB      0.264000
     52 H10       121.6290  231.4760  348.4050 h1        1 FEB      0.133000
     53 H13       119.8020  230.0160  349.4070 hc        1 FEB      0.120500
     54 H13A      121.0290  229.2380  350.4910 hc        1 FEB      0.120500
     55 H14       121.4470  229.4130  347.4230 hc        1 FEB      0.166500
     56 H14A      122.2820  228.3380  348.6130 hc        1 FEB      0.166500
     57 HN17      120.7340  227.2640  346.1580 hn        1 FEB      0.269333
     58 HN1A      121.4440  226.2600  347.2810 hn        1 FEB      0.269333
     59 HN18      126.6100  232.1260  348.3620 hn        1 FEB      0.256000
     60 H19       126.0920  229.9150  348.5410 h1        1 FEB      0.136000
     61 H22       125.6480  230.2000  350.3020 h1        1 FEB      0.136000
     62 H22A      121.0610  234.1120  353.3540 hc        1 FEB      0.152333
     63 HN25      123.2100  233.2620  352.4950 hn        1 FEB      0.298000
     64 HN2A      121.2200  233.6950  355.1230 hc        1 FEB      0.152333
     65 H26       332.0800  192.7400-1834.5010 h4        1 FEB      0.225500
     66 H26A     -730.6700 -618.7920   51.8720 ha        1 FEB      0.118500
     67 H27       127.7060  234.0040  350.0200 hc        1 FEB      0.124000
     68 H28       333.0950  193.5830-1833.0550 h4        1 FEB      0.225500
     69 H28A     -730.8910 -619.9030   50.4060 ha        1 FEB      0.118500
     70 H29      -730.1360 -616.8780   50.4060 ha        1 FEB      0.133000
     71 H29A     -730.3700 -616.9390   48.0290 ha        1 FEB      0.125000
     72 H30      -729.6490 -621.4290   41.8470 ha        1 FEB      0.030500
     73 H30A     -728.0360 -619.8110   41.7400 ha        1 FEB      0.182500
     74 H30B     -727.9400 -621.7770   44.1590 hc        1 FEB      0.225000
     75 H31      -727.0450 -621.4250   41.8310 ha        1 FEB      0.182500
     76 H31A     -729.2230 -621.8970   41.5780 ha        1 FEB      0.030500
     77 H32      -730.0010 -620.3090   43.9030 hc        1 FEB      0.112500
     78 H32A     -726.8970 -620.3200   44.2040 hc        1 FEB      0.225000
     79 H33      -729.1070 -620.9200   46.1840 hc        1 FEB      0.096000
     80 H33A     -728.9540 -618.8280   43.8960 hc        1 FEB      0.112500
     81 H34      -730.1510 -618.0110   45.9140 hc        1 FEB      0.092500
     82 H34A     -728.0780 -619.4310   46.1770 hc        1 FEB      0.096000
     83 H35      -730.1600 -620.0370   48.2820 ha        1 FEB      0.128000
     84 H35A     -731.1710 -619.5050   45.9530 hc        1 FEB      0.092500
     85 H36       126.3080  234.8630  350.8020 hc        1 FEB      0.124000
     86 H36A      126.3560  234.6620  348.9950 hc        1 FEB      0.124000
     87 HO37      330.8200  194.7040-1834.4560 ho        1 FEB      0.333000
     88 H12       613.2040  227.6770 -455.2600 hn        1 FEB      0.168000
     89 H92       124.2920  235.7540  356.8850 h2        1 FEB      0.151500
     90 H173      119.8170  226.0980  346.9320 hn        1 FEB      0.269333
     91 H182      121.2420  235.4420  354.5920 hc        1 FEB      0.152333
     92 H253      124.7000  233.6870  353.2150 hn        1 FEB      0.298000
     93 C20       124.0370  230.4790  348.8560 c2        1 FEB      0.290000
     94 C38       125.8660  232.8720  350.1250 c2        1 FEB      0.334000
     95 C29      -730.3570 -617.8720   49.9760 c2        1 FEB     -0.155000
@<TRIPOS>BOND
     1    1    2 1   
     2    1   40 1   
     3    1   88 1   
     4    2    5 1   
     5    2   38 1   
     6    2   42 1   
     7    3    4 1   
     8    3   23 1   
     9    3   39 1   
    10    3   89 1   
    11    4   41 1   
    12    5    6 1   
    13    5   43 1   
    14    5   44 1   
    15    6    7 1   
    16    6    8 1   
    17    6   47 1   
    18    7   45 1   
    19    7   46 1   
    20    8   48 1   
    21    8   49 1   
    22    8   50 1   
    23    9   10 1   
    24    9   51 1   
    25    9   93 1   
    26   10   11 1   
    27   10   13 1   
    28   10   52 1   
    29   11   12 1   
    30   11   37 1   
    31   13   14 1   
    32   13   53 1   
    33   13   54 1   
    34   14   15 1   
    35   14   55 1   
    36   14   56 1   
    37   15   16 1   
    38   15   17 1   
    39   17   57 1   
    40   17   58 1   
    41   17   90 1   
    42   18   19 1   
    43   18   59 1   
    44   18   94 1   
    45   19   60 1   
    46   19   61 1   
    47   19   93 1   
    48   20   93 1   
    49   21   22 1   
    50   21   62 1   
    51   21   64 1   
    52   21   91 1   
    53   22   23 1   
    54   22   24 1   
    55   24   63 1   
    56   24   92 1   
    57   25   66 1   
    58   25   69 1   
    59   25   95 1   
    60   26   35 1   
    61   26   65 1   
    62   26   68 1   
    63   27   33 1   
    64   27   71 1   
    65   27   95 1   
    66   28   29 1   
    67   28   73 1   
    68   28   75 1   
    69   29   30 1   
    70   29   74 1   
    71   29   78 1   
    72   30   31 1   
    73   30   77 1   
    74   30   80 1   
    75   31   32 1   
    76   31   79 1   
    77   31   82 1   
    78   32   33 1   
    79   32   81 1   
    80   32   84 1   
    81   33   83 1   
    82   34   67 1   
    83   34   85 1   
    84   34   86 1   
    85   34   94 1   
    86   35   87 1   
    87   36   94 1   
    88   70   95 1   
    89   72   76 1   
@<TRIPOS>SUBSTRUCTURE
     1 FEB         1 TEMP              0 ****  ****    0 ROOT
