@<TRIPOS>MOLECULE
FEE
  127   127     1     0     0
SMALL
bcc


@<TRIPOS>ATOM
      1 N2          0.4020    1.6450    1.4700 n4        1 FEE     -0.680800
      2 C3          0.8750   -0.0510   -0.3170 c3        1 FEE      0.136100
      3 C4          1.9700   -0.8910   -1.0060 c3        1 FEE      0.118100
      4 C5          1.4050   -1.5440   -2.2620 c3        1 FEE     -0.118400
      5 C6          2.3020   -2.6550   -2.7630 c3        1 FEE     -0.082400
      6 C7          1.7470   -3.2700   -4.0300 c3        1 FEE     -0.080400
      7 C8          2.6380   -4.3870   -4.5320 c3        1 FEE     -0.079400
      8 C9          2.0890   -5.0030   -5.7930 c3        1 FEE     -0.095100
      9 C1          2.4820    0.2850    1.6580 c3        1 FEE      0.111400
     10 CAX       -23.6420    6.3800  -15.8420 c3        1 FEE     -0.093100
     11 CAW       -22.2300    6.7980  -15.5230 c3        1 FEE     -0.080400
     12 CAV       -21.6490    5.9760  -14.3910 c3        1 FEE     -0.079400
     13 CAU       -20.2310    6.4010  -14.0730 c3        1 FEE     -0.079400
     14 CAT       -19.6520    5.5790  -12.9420 c3        1 FEE     -0.079400
     15 CAS       -18.2350    6.0040  -12.6230 c3        1 FEE     -0.079400
     16 CAR       -17.6570    5.1830  -11.4910 c3        1 FEE     -0.079400
     17 CAQ       -16.2400    5.6090  -11.1710 c3        1 FEE     -0.079400
     18 CAP       -15.6620    4.7880  -10.0380 c3        1 FEE     -0.079400
     19 CAO       -14.2460    5.2150   -9.7170 c3        1 FEE     -0.079400
     20 CAN       -13.6690    4.3960   -8.5820 c3        1 FEE     -0.079400
     21 CAM       -12.2540    4.8240   -8.2590 c3        1 FEE     -0.079400
     22 CAL       -11.6780    4.0070   -7.1220 c3        1 FEE     -0.079400
     23 CAK       -10.2640    4.4380   -6.7980 c3        1 FEE     -0.079400
     24 CAJ        -9.6900    3.6230   -5.6580 c3        1 FEE     -0.079400
     25 CAI        -8.2770    4.0550   -5.3320 c3        1 FEE     -0.079400
     26 CAH        -7.7050    3.2420   -4.1900 c3        1 FEE     -0.079400
     27 CAG        -6.2930    3.6760   -3.8620 c3        1 FEE     -0.079400
     28 CAF        -5.7220    2.8650   -2.7180 c3        1 FEE     -0.079400
     29 CAE        -4.3110    3.3020   -2.3890 c3        1 FEE     -0.079400
     30 CAD        -3.7440    2.4900   -1.2440 c3        1 FEE     -0.080400
     31 CAC        -2.3340    2.9360   -0.9160 c3        1 FEE     -0.081400
     32 CAB        -1.7730    2.1090    0.2250 c3        1 FEE     -0.158400
     33 CAA        -0.4070    2.5950    0.6100 c         1 FEE      0.551100
     34 OAA         0.1370    3.6550    0.3470 o         1 FEE     -0.413100
     35 C2          1.4950    0.9590    0.6900 c3        1 FEE      0.096500
     36 O3         -0.0870   -0.8540    0.3280 oh        1 FEE     -0.622800
     37 O4          3.0490   -0.0070   -1.2740 oh        1 FEE     -0.626800
     38 O1A         1.7610   -0.7450    2.3240 os        1 FEE     -0.485600
     39 C1A         2.5870   -1.7320    2.9380 c3        1 FEE      0.343900
     40 O6A         2.7720   -1.2850    4.2540 os        1 FEE     -0.415600
     41 C5M         1.6130   -1.3260    5.0950 c3        1 FEE      0.113100
     42 C6A         2.1000   -0.8800    6.4790 c3        1 FEE      0.140400
     43 O5A         2.5900    0.4410    6.4170 oh        1 FEE     -0.595800
     44 C4A         0.9730   -2.7180    5.1370 c3        1 FEE      0.090100
     45 O4A         1.8880   -3.6110    5.7440 oh        1 FEE     -0.579800
     46 C3A         0.6240   -3.1530    3.7040 c3        1 FEE      0.067100
     47 O3A         0.2050   -4.5080    3.6790 oh        1 FEE     -0.600800
     48 C2A         1.8790   -3.0940    2.8210 c3        1 FEE      0.128100
     49 O2A         1.5390   -3.2600    1.4550 oh        1 FEE     -0.618800
     50 HN2        -0.2060    0.9040    1.8480 hn        1 FEE      0.464800
     51 H3          0.2980    0.5250   -1.0980 h1        1 FEE      0.084700
     52 H4          2.3290   -1.6840   -0.2840 h1        1 FEE      0.075700
     53 H5          1.2750   -0.7670   -3.0610 hc        1 FEE      0.065700
     54 H5A         0.3900   -1.9590   -2.0210 hc        1 FEE      0.065700
     55 H6          2.4000   -3.4460   -1.9720 hc        1 FEE      0.044700
     56 H6A         3.3320   -2.2560   -2.9610 hc        1 FEE      0.044700
     57 H7          1.6510   -2.4820   -4.8220 hc        1 FEE      0.045200
     58 H7A         0.7170   -3.6710   -3.8340 hc        1 FEE      0.045200
     59 H8          3.6680   -3.9860   -4.7260 hc        1 FEE      0.041200
     60 H8A         2.7340   -5.1740   -3.7380 hc        1 FEE      0.041200
     61 H9          1.0730   -5.4310   -5.6140 hc        1 FEE      0.039033
     62 H9A         2.7600   -5.8230   -6.1450 hc        1 FEE      0.039033
     63 H9B         2.0100   -4.2390   -6.6040 hc        1 FEE      0.039033
     64 H1          2.8820    1.0070    2.4200 h1        1 FEE      0.085200
     65 H1A         3.3370   -0.1270    1.0530 h1        1 FEE      0.085200
     66 HAX       -24.0500    6.9970  -16.6780 hc        1 FEE      0.033033
     67 HAXA      -24.3030    6.5110  -14.9510 hc        1 FEE      0.033033
     68 HAXB      -23.6760    5.3060  -16.1470 hc        1 FEE      0.033033
     69 HAW       -21.5870    6.6830  -16.4350 hc        1 FEE      0.038700
     70 HAWA      -22.2130    7.8850  -15.2420 hc        1 FEE      0.038700
     71 HAV       -22.2900    6.0910  -13.4770 hc        1 FEE      0.039700
     72 HAVA      -21.6630    4.8900  -14.6710 hc        1 FEE      0.039700
     73 HAU       -19.5910    6.2860  -14.9870 hc        1 FEE      0.039700
     74 HAUA      -20.2180    7.4870  -13.7940 hc        1 FEE      0.039700
     75 HAT       -20.2940    5.6930  -12.0280 hc        1 FEE      0.039700
     76 HATA      -19.6660    4.4920  -13.2210 hc        1 FEE      0.039700
     77 HAS       -17.5940    5.8890  -13.5370 hc        1 FEE      0.039700
     78 HASA      -18.2220    7.0900  -12.3450 hc        1 FEE      0.039700
     79 HAR       -17.6690    4.0960  -11.7700 hc        1 FEE      0.039700
     80 HARA      -18.2990    5.2960  -10.5780 hc        1 FEE      0.039700
     81 HAQ       -16.2270    6.6950  -10.8930 hc        1 FEE      0.039700
     82 HAQA      -15.5980    5.4940  -12.0840 hc        1 FEE      0.039700
     83 HAP       -15.6730    3.7010  -10.3170 hc        1 FEE      0.039700
     84 HAPA      -16.3050    4.9020   -9.1260 hc        1 FEE      0.039700
     85 HAO       -14.2350    6.3020   -9.4390 hc        1 FEE      0.039700
     86 HAOA      -13.6020    5.1010  -10.6290 hc        1 FEE      0.039700
     87 HAN       -14.3130    4.5100   -7.6710 hc        1 FEE      0.039700
     88 HANA      -13.6790    3.3090   -8.8600 hc        1 FEE      0.039700
     89 HAM       -11.6090    4.7090   -9.1700 hc        1 FEE      0.040200
     90 HAMA      -12.2430    5.9120   -7.9840 hc        1 FEE      0.040200
     91 HAL       -12.3250    4.1220   -6.2130 hc        1 FEE      0.039700
     92 HALA      -11.6870    2.9200   -7.3990 hc        1 FEE      0.039700
     93 HAK        -9.6170    4.3210   -7.7070 hc        1 FEE      0.040700
     94 HAKA      -10.2550    5.5260   -6.5240 hc        1 FEE      0.040700
     95 HAJ        -9.6970    2.5350   -5.9330 hc        1 FEE      0.040200
     96 HAJA      -10.3390    3.7380   -4.7500 hc        1 FEE      0.040200
     97 HAI        -8.2700    5.1430   -5.0590 hc        1 FEE      0.041200
     98 HAIA       -7.6280    3.9380   -6.2400 hc        1 FEE      0.041200
     99 HAH        -7.7110    2.1540   -4.4630 hc        1 FEE      0.041200
    100 HAHA       -8.3550    3.3580   -3.2830 hc        1 FEE      0.041200
    101 HAG        -5.6430    3.5580   -4.7690 hc        1 FEE      0.042700
    102 HAGA       -6.2870    4.7650   -3.5900 hc        1 FEE      0.042700
    103 HAF        -5.7260    1.7760   -2.9910 hc        1 FEE      0.042700
    104 HAFA       -6.3740    2.9820   -1.8130 hc        1 FEE      0.042700
    105 HAE        -3.6590    3.1840   -3.2950 hc        1 FEE      0.047700
    106 HAEA       -4.3080    4.3910   -2.1180 hc        1 FEE      0.047700
    107 HAD        -4.3980    2.6080   -0.3400 hc        1 FEE      0.048200
    108 HADA       -3.7440    1.4020   -1.5170 hc        1 FEE      0.048200
    109 HAC        -2.3310    4.0230   -0.6350 hc        1 FEE      0.068200
    110 HACA       -1.6790    2.8250   -1.8210 hc        1 FEE      0.068200
    111 HAB        -2.4410    2.1990    1.1270 hc        1 FEE      0.108200
    112 HABA       -1.7330    1.0210   -0.0670 hc        1 FEE      0.108200
    113 H2          2.0600    1.7460    0.1030 hx        1 FEE      0.140700
    114 HO3         0.3720   -1.5750    0.7960 ho        1 FEE      0.459000
    115 HO4         3.4830   -0.3010   -2.0850 ho        1 FEE      0.437000
    116 H1AA        3.6190   -1.7760    2.4860 h2        1 FEE      0.106700
    117 H5M         0.8570   -0.5970    4.6900 h1        1 FEE      0.045700
    118 H6AA        2.8770   -1.5950    6.8560 h1        1 FEE      0.077200
    119 H6AB        1.2280   -0.8460    7.1850 h1        1 FEE      0.077200
    120 HO5A        3.4560    0.4010    5.9930 ho        1 FEE      0.412000
    121 H4A         0.0330   -2.6760    5.7570 h1        1 FEE      0.055700
    122 HO4A        1.5690   -4.5080    5.5670 ho        1 FEE      0.424000
    123 H3A        -0.1730   -2.4850    3.2790 h1        1 FEE      0.056700
    124 HO3A       -0.6460   -4.5540    4.1340 ho        1 FEE      0.423000
    125 H2A         2.6000   -3.8960    3.1510 h1        1 FEE      0.095700
    126 HO2A        1.1440   -4.1410    1.3790 ho        1 FEE      0.441000
    127 H22         0.8330    2.1580    2.2470 hn        1 FEE      0.464800
@<TRIPOS>BOND
     1    1   33 1   
     2    1   35 1   
     3    1   50 1   
     4    1  127 1   
     5    2    3 1   
     6    2   35 1   
     7    2   36 1   
     8    2   51 1   
     9    3    4 1   
    10    3   37 1   
    11    3   52 1   
    12    4    5 1   
    13    4   53 1   
    14    4   54 1   
    15    5    6 1   
    16    5   55 1   
    17    5   56 1   
    18    6    7 1   
    19    6   57 1   
    20    6   58 1   
    21    7    8 1   
    22    7   59 1   
    23    7   60 1   
    24    8   61 1   
    25    8   62 1   
    26    8   63 1   
    27    9   35 1   
    28    9   38 1   
    29    9   64 1   
    30    9   65 1   
    31   10   11 1   
    32   10   66 1   
    33   10   67 1   
    34   10   68 1   
    35   11   12 1   
    36   11   69 1   
    37   11   70 1   
    38   12   13 1   
    39   12   71 1   
    40   12   72 1   
    41   13   14 1   
    42   13   73 1   
    43   13   74 1   
    44   14   15 1   
    45   14   75 1   
    46   14   76 1   
    47   15   16 1   
    48   15   77 1   
    49   15   78 1   
    50   16   17 1   
    51   16   79 1   
    52   16   80 1   
    53   17   18 1   
    54   17   81 1   
    55   17   82 1   
    56   18   19 1   
    57   18   83 1   
    58   18   84 1   
    59   19   20 1   
    60   19   85 1   
    61   19   86 1   
    62   20   21 1   
    63   20   87 1   
    64   20   88 1   
    65   21   22 1   
    66   21   89 1   
    67   21   90 1   
    68   22   23 1   
    69   22   91 1   
    70   22   92 1   
    71   23   24 1   
    72   23   93 1   
    73   23   94 1   
    74   24   25 1   
    75   24   95 1   
    76   24   96 1   
    77   25   26 1   
    78   25   97 1   
    79   25   98 1   
    80   26   27 1   
    81   26   99 1   
    82   26  100 1   
    83   27   28 1   
    84   27  101 1   
    85   27  102 1   
    86   28   29 1   
    87   28  103 1   
    88   28  104 1   
    89   29   30 1   
    90   29  105 1   
    91   29  106 1   
    92   30   31 1   
    93   30  107 1   
    94   30  108 1   
    95   31   32 1   
    96   31  109 1   
    97   31  110 1   
    98   32   33 1   
    99   32  111 1   
   100   32  112 1   
   101   33   34 2   
   102   35  113 1   
   103   36  114 1   
   104   37  115 1   
   105   38   39 1   
   106   39   40 1   
   107   39   48 1   
   108   39  116 1   
   109   40   41 1   
   110   41   42 1   
   111   41   44 1   
   112   41  117 1   
   113   42   43 1   
   114   42  118 1   
   115   42  119 1   
   116   43  120 1   
   117   44   45 1   
   118   44   46 1   
   119   44  121 1   
   120   45  122 1   
   121   46   47 1   
   122   46   48 1   
   123   46  123 1   
   124   47  124 1   
   125   48   49 1   
   126   48  125 1   
   127   49  126 1   
@<TRIPOS>SUBSTRUCTURE
     1 FEE         1 TEMP              0 ****  ****    0 ROOT
