@<TRIPOS>MOLECULE
molecule
   46    49     1     0     0
SMALL
bcc


@<TRIPOS>ATOM
      1 OAV          0.0000     0.0000     0.0000 o          1 FEF      -0.724500
      2 CAT          1.2910     0.0000     0.0000 c          1 FEF       0.681700
      3 CAR          2.1230     0.0000     1.1290 cc         1 FEF      -0.210400
      4 CAS          3.4350     0.0560     0.5840 ca         1 FEF      -0.073800
      5 CAX          4.7510     0.1110     1.0930 ca         1 FEF      -0.076000
      6 CAY          5.8420     0.1930     0.2540 ca         1 FEF      -0.157000
      7 CAZ          5.6700     0.2360    -1.1200 ca         1 FEF      -0.100000
      8 CBA          4.3910     0.2010    -1.6440 ca         1 FEF      -0.161000
      9 CAW          3.2780     0.0990    -0.8130 ca         1 FEF       0.015600
     10 NAU          1.9690     0.0810    -1.1410 ns         1 FEF      -0.396100
     11 CAI          1.5990    -0.0940     2.4120 cd         1 FEF       0.101300
     12 CAG          2.1650    -0.1590     3.6900 cd         1 FEF       0.463200
     13 CAD          1.1340    -0.2630     4.6240 ca         1 FEF      -0.253900
     14 CAC          1.0850    -0.3580     6.0160 ca         1 FEF      -0.034000
     15 CAA         -0.1530    -0.4450     6.6560 ca         1 FEF      -0.173000
     16 CAB         -1.3330    -0.4500     5.9070 ca         1 FEF      -0.073000
     17 CAF         -1.2850    -0.3720     4.5180 ca         1 FEF      -0.164000
     18 CAE         -0.0460    -0.2640     3.8800 ca         1 FEF       0.017800
     19 NAH          0.2640    -0.1490     2.5690 na         1 FEF      -0.198400
     20 NAJ          3.4870    -0.1080     3.9670 n2         1 FEF      -0.388200
     21 OAK          4.1040    -0.0730     5.2660 os         1 FEF      -0.203300
     22 CAL          5.5010     0.2520     5.3500 c3         1 FEF       0.157400
     23 CAM          6.3600    -0.9890     5.1000 c3         1 FEF      -0.106400
     24 CAN          7.5540    -0.7690     4.1570 c3         1 FEF       0.156100
     25 OAQ          7.8500     0.6270     4.0030 oh         1 FEF      -0.615800
     26 CAO          8.7760    -1.5050     4.7230 c3         1 FEF       0.099400
     27 OAP          9.8680    -1.6140     3.7910 oh         1 FEF      -0.619800
     28 HAU          1.5950    -0.0570    -2.0590 hn         1 FEF       0.352500
     29 HAX          4.9070     0.0790     2.1640 ha         1 FEF       0.151000
     30 HAY          6.8410     0.2200     0.6720 ha         1 FEF       0.131000
     31 HAZ          6.5290     0.3010    -1.7770 ha         1 FEF       0.133000
     32 HBA          4.2530     0.2340    -2.7180 ha         1 FEF       0.127000
     33 HAC          2.0000    -0.3540     6.5960 ha         1 FEF       0.150000
     34 HAA         -0.1990    -0.5060     7.7370 ha         1 FEF       0.138000
     35 HAB         -2.2900    -0.5180     6.4100 ha         1 FEF       0.137000
     36 HAF         -2.2000    -0.3760     3.9380 ha         1 FEF       0.142000
     37 HAL1         5.7370     1.0050     4.6090 h1         1 FEF       0.077700
     38 HAL2         5.7170     0.6420     6.3370 h1         1 FEF       0.077700
     39 HAM1         6.7370    -1.3400     6.0530 hc         1 FEF       0.056700
     40 HAM2         5.7280    -1.7610     4.6770 hc         1 FEF       0.056700
     41 HAN          7.3140    -1.1850     3.1860 h1         1 FEF       0.049700
     42 HAQ          8.6090     0.7290     3.4530 ho         1 FEF       0.420000
     43 HAO1         8.4720    -2.5020     5.0180 h1         1 FEF       0.030700
     44 HAO2         9.1230    -0.9740     5.6010 h1         1 FEF       0.030700
     45 HAP         10.5590    -2.1280     4.1750 ho         1 FEF       0.411000
     46 HN1         -0.4020    -0.1110     1.8230 hn         1 FEF       0.360700
@<TRIPOS>BOND
     1     1     2 2
     2     2     3 1
     3     2    10 1
     4     3     4 1
     5     3    11 2
     6     4     5 ar
     7     4     9 ar
     8     5     6 ar
     9     6     7 ar
    10     7     8 ar
    11     8     9 ar
    12     9    10 1
    13    11    12 1
    14    11    19 1
    15    12    13 1
    16    12    20 2
    17    13    14 ar
    18    13    18 ar
    19    14    15 ar
    20    15    16 ar
    21    16    17 ar
    22    17    18 ar
    23    18    19 1
    24    20    21 1
    25    21    22 1
    26    22    23 1
    27    23    24 1
    28    24    25 1
    29    24    26 1
    30    26    27 1
    31    10    28 1
    32     5    29 1
    33     6    30 1
    34     7    31 1
    35     8    32 1
    36    14    33 1
    37    15    34 1
    38    16    35 1
    39    17    36 1
    40    22    37 1
    41    22    38 1
    42    23    39 1
    43    23    40 1
    44    24    41 1
    45    25    42 1
    46    26    43 1
    47    26    44 1
    48    27    45 1
    49    19    46 1
@<TRIPOS>SUBSTRUCTURE
     1 FEF         1 TEMP              0 ****  ****    0 ROOT
