@<TRIPOS>MOLECULE
FEG
   59    62     1     0     0
SMALL
bcc


@<TRIPOS>ATOM
      1 N1          3.2610   -1.9030    1.7130 nb        1 FEG     -0.774000
      2 C2          3.6790   -0.7670    1.1110 ca        1 FEG      0.622600
      3 O2          4.0790   -0.8400   -0.2120 oh        1 FEG     -0.625300
      4 C3          3.7630    0.5060    1.7290 ca        1 FEG     -0.234600
      5 C3M         4.2900    1.6800    1.0050 c3        1 FEG     -0.042800
      6 C4          3.3330    0.5860    3.0730 ca        1 FEG      0.287100
      7 C5          2.8510   -0.5930    3.7240 ca        1 FEG     -0.236600
      8 C5M         2.3580   -0.4960    5.1140 c3        1 FEG     -0.061800
      9 C6          2.8630   -1.8020    3.0080 ca        1 FEG      0.411600
     10 C7          2.4240   -3.0860    3.6660 c3        1 FEG     -0.164700
     11 C8          3.5050   -3.6220    4.5560 c         1 FEG      0.667100
     12 O28         4.3590   -4.4890    3.9500 oh        1 FEG     -0.591100
     13 O18         3.7060   -3.4200    5.7630 o         1 FEG     -0.614000
     14 O3P         3.5190    1.7070    3.7750 os        1 FEG     -0.492500
     15 P1          2.4190    2.9830    3.9600 p5        1 FEG      1.449800
     16 O1P         1.3000    2.3940    4.7100 o         1 FEG     -0.804000
     17 O2P         2.3790    3.7350    2.7030 o         1 FEG     -0.804000
     18 O5S         3.4070    3.7500    5.0280 os        1 FEG     -0.564200
     19 C5S         3.7430    3.0150    6.1670 c3        1 FEG      0.171400
     20 C4S         3.9130    3.9800    7.3440 c3        1 FEG      0.093100
     21 C3S         4.9450    5.0790    7.0430 c3        1 FEG      0.086100
     22 O3S         4.6140    6.3260    7.6190 oh        1 FEG     -0.595800
     23 C2S         6.2610    4.5460    7.6570 c3        1 FEG      0.066100
     24 O2S         6.9250    5.4880    8.4760 oh        1 FEG     -0.610800
     25 C1S         5.8180    3.3690    8.5960 c3        1 FEG      0.248800
     26 O4S         4.3980    3.2730    8.5020 os        1 FEG     -0.391600
     27 N9A         6.4960    2.1240    8.2970 na        1 FEG     -0.227900
     28 C8A         7.9000    2.0270    8.0960 cc        1 FEG      0.380400
     29 N7A         8.3120    0.7810    7.8120 nd        1 FEG     -0.593000
     30 C5A         7.1480    0.0090    7.8120 cd        1 FEG      0.151800
     31 C4A         5.9970    0.8310    8.1200 cc        1 FEG      0.149800
     32 C6A         6.9550   -1.3950    7.5190 c         1 FEG      0.653000
     33 O6A         7.8140   -2.2430    7.2210 o         1 FEG     -0.634500
     34 N1A         5.6050   -1.8210    7.5880 n         1 FEG     -0.500400
     35 C2A         4.5540   -0.9580    7.9560 cd        1 FEG      0.682800
     36 N3A         4.7020    0.3670    8.2160 nc        1 FEG     -0.654100
     37 N2A         3.2770   -1.5360    8.1390 nh        1 FEG     -0.881800
     38 H3M         4.7980    1.3730    0.0590 hc        1 FEG      0.056367
     39 H3MA        3.4590    2.3900    0.7550 hc        1 FEG      0.056367
     40 H3MB        5.0220    2.2280    1.6500 hc        1 FEG      0.056367
     41 H5M         2.2330   -1.5000    5.5870 hc        1 FEG      0.055033
     42 H5MA        3.0790    0.0950    5.7360 hc        1 FEG      0.055033
     43 H5MB        1.3720    0.0400    5.1360 hc        1 FEG      0.055033
     44 H7          1.5070   -2.9000    4.2850 hc        1 FEG      0.088700
     45 H7A         2.1770   -3.8680    2.8960 hc        1 FEG      0.088700
     46 H5S         2.9340    2.2680    6.4040 h1        1 FEG      0.053700
     47 H5SA        4.7150    2.4730    5.9950 h1        1 FEG      0.053700
     48 H4S         2.9240    4.4070    7.6580 h1        1 FEG      0.092700
     49 H3S         5.0230    5.2730    5.9390 h1        1 FEG      0.140700
     50 HO3S        4.3270    6.1580    8.5260 ho        1 FEG      0.404000
     51 H2S         6.9660    4.2120    6.8500 h1        1 FEG      0.079700
     52 HO2S        6.6970    6.3710    8.1500 ho        1 FEG      0.426000
     53 H8A         8.5400    2.9110    8.1840 h5        1 FEG      0.065100
     54 HN1A        5.3990   -2.7580    7.3080 hn        1 FEG      0.343500
     55 HN2A        5.0630   -4.7450    4.5680 ho        1 FEG      0.442000
     56 HN2B        2.5360   -0.8650    8.1770 hn        1 FEG      0.424300
     57 H23         6.0310    3.6220    9.6800 h2        1 FEG      0.093700
     58 H25         4.0130   -1.7610   -0.5080 ho        1 FEG      0.424000
     59 H2A3        3.0770   -2.3040    7.5280 hn        1 FEG      0.424300
@<TRIPOS>BOND
     1    1    2 ar  
     2    1    9 ar  
     3    2    3 1   
     4    2    4 ar  
     5    3   58 1   
     6    4    5 1   
     7    4    6 ar  
     8    5   38 1   
     9    5   39 1   
    10    5   40 1   
    11    6    7 ar  
    12    6   14 1   
    13    7    8 1   
    14    7    9 ar  
    15    8   41 1   
    16    8   42 1   
    17    8   43 1   
    18    9   10 1   
    19   10   11 1   
    20   10   44 1   
    21   10   45 1   
    22   11   12 1   
    23   11   13 2   
    24   12   55 1   
    25   14   15 1   
    26   15   16 1   
    27   15   17 1   
    28   15   18 1   
    29   18   19 1   
    30   19   20 1   
    31   19   46 1   
    32   19   47 1   
    33   20   21 1   
    34   20   26 1   
    35   20   48 1   
    36   21   22 1   
    37   21   23 1   
    38   21   49 1   
    39   22   50 1   
    40   23   24 1   
    41   23   25 1   
    42   23   51 1   
    43   24   52 1   
    44   25   26 1   
    45   25   27 1   
    46   25   57 1   
    47   27   28 1   
    48   27   31 1   
    49   28   29 2   
    50   28   53 1   
    51   29   30 1   
    52   30   31 2   
    53   30   32 1   
    54   31   36 1   
    55   32   33 2   
    56   32   34 1   
    57   34   35 1   
    58   34   54 1   
    59   35   36 2   
    60   35   37 1   
    61   37   56 1   
    62   37   59 1   
@<TRIPOS>SUBSTRUCTURE
     1 FEG         1 TEMP              0 ****  ****    0 ROOT
