@<TRIPOS>MOLECULE
molecule
   59    62     1     0     0
SMALL
bcc


@<TRIPOS>ATOM
      1 N1           0.0000     0.0000     0.0000 nb         1 FEG      -0.786000
      2 C2           1.3240     0.0000     0.0000 ca         1 FEG       0.636600
      3 O2           1.9950    -0.0000    -1.1790 oh         1 FEG      -0.634300
      4 C3           2.0320     0.0000     1.1930 ca         1 FEG      -0.245600
      5 C3M          3.5390     0.0020     1.1860 c3         1 FEG      -0.018800
      6 C4           1.3320     0.0000     2.3930 ca         1 FEG       0.219100
      7 C5          -0.0620    -0.0000     2.3470 ca         1 FEG      -0.216600
      8 C5M         -0.8670    -0.0010     3.6200 c3         1 FEG      -0.026800
      9 C6          -0.6950     0.0000     1.1230 ca         1 FEG       0.520600
     10 C7          -2.2010    -0.0000     1.0630 c3         1 FEG      -0.231700
     11 C8          -2.7020    -1.4220     1.0440 c          1 FEG       0.898600
     12 O28         -4.0220    -1.6670     0.9930 o          1 FEG      -0.829300
     13 O18         -1.9180    -2.3390     1.0750 o          1 FEG      -0.829300
     14 O3P          1.9880     0.0000     3.5810 os         1 FEG      -0.467500
     15 P1           2.3050     1.4710     4.1540 p5         1 FEG       1.321800
     16 O1P          0.9230     2.2220     4.4970 o          1 FEG      -0.801500
     17 O2P          3.0480     2.2470     3.1380 o          1 FEG      -0.801500
     18 O5S          3.1940     1.3460     5.4900 os         1 FEG      -0.588200
     19 C5S          3.7270     2.4800     6.1790 c3         1 FEG       0.239400
     20 C4S          4.5170     2.0070     7.4010 c3         1 FEG       0.120100
     21 C3S          4.9980     3.2190     8.2310 c3         1 FEG       0.096100
     22 O3S          4.1230     3.4470     9.3380 oh         1 FEG      -0.572800
     23 C2S          6.4010     2.8010     8.7280 c3         1 FEG       0.079100
     24 O2S          6.4340     2.7580    10.1550 oh         1 FEG      -0.579800
     25 C1S          6.6010     1.3880     8.1390 c3         1 FEG       0.228800
     26 O4S          5.7300     1.3400     6.9880 os         1 FEG      -0.377600
     27 N9A          7.9960     1.1990     7.7300 na         1 FEG      -0.150900
     28 C8A          8.5030     1.3890     6.4770 cc         1 FEG       0.524400
     29 N7A          9.7780     1.1300     6.4730 nd         1 FEG      -0.630000
     30 C5A         10.1640     0.7610     7.7180 cd         1 FEG       0.295800
     31 C4A          9.0290     0.8070     8.5360 cc         1 FEG       0.017800
     32 C6A         11.3980     0.3750     8.2930 c          1 FEG       0.630000
     33 O6A         12.4130     0.3270     7.6190 o          1 FEG      -0.556500
     34 N1A         11.4240     0.0630     9.6080 ns         1 FEG      -0.472400
     35 C2A         10.2840     0.1210    10.3510 cd         1 FEG       0.387800
     36 N3A          9.1330     0.4890     9.8320 nc         1 FEG      -0.531100
     37 N2A         10.3400    -0.2020    11.6840 nz         1 FEG      -0.710600
     38 H3M          3.8980     1.0120     1.0350 hc         1 FEG       0.034033
     39 H3MA         3.9050    -0.3730     2.1340 hc         1 FEG       0.034033
     40 H3MB         3.8970    -0.6330     0.3840 hc         1 FEG       0.034033
     41 H5M         -0.2130    -0.1980     4.4610 hc         1 FEG       0.045033
     42 H5MA        -1.6280    -0.7700     3.5670 hc         1 FEG       0.045033
     43 H5MB        -1.3400     0.9660     3.7490 hc         1 FEG       0.045033
     44 H7          -2.5270     0.5100     0.1650 hc         1 FEG       0.053200
     45 H7A         -2.5970     0.5100     1.9330 hc         1 FEG       0.053200
     46 H5S          2.9150     3.1220     6.5000 h1         1 FEG       0.048200
     47 H5SA         4.3830     3.0300     5.5160 h1         1 FEG       0.048200
     48 H4S          3.9160     1.3470     8.0150 h1         1 FEG       0.094700
     49 H3S          5.0670     4.1010     7.6060 h1         1 FEG       0.063700
     50 HO3S         3.8320     4.3440     9.3290 ho         1 FEG       0.409000
     51 H2S          7.1540     3.4790     8.3450 h1         1 FEG       0.048700
     52 HO2S         6.9060     3.5070    10.4810 ho         1 FEG       0.400000
     53 H8A          7.9290     1.7060     5.6150 h5         1 FEG       0.127100
     54 HN1A        12.2840    -0.2210    10.0350 hn         1 FEG       0.334500
     55 HN2A         9.6720     0.3470    12.1890 hn         1 FEG       0.465467
     56 HN2B        11.2590    -0.0150    12.0340 hn         1 FEG       0.465467
     57 H23          6.3090     0.6360     8.8610 h2         1 FEG       0.104700
     58 H25          1.3780     0.0100    -1.8920 ho         1 FEG       0.420000
     59 H2A3        10.1290    -1.1730    11.8010 hn         1 FEG       0.465467
@<TRIPOS>BOND
     1     1     2 ar
     2     1     9 ar
     3     2     3 1
     4     2     4 ar
     5     4     5 1
     6     4     6 ar
     7     5    38 1
     8     5    39 1
     9     5    40 1
    10     6     7 ar
    11     6    14 1
    12     7     8 1
    13     7     9 ar
    14     8    41 1
    15     8    42 1
    16     8    43 1
    17     9    10 1
    18    10    11 1
    19    10    44 1
    20    10    45 1
    21    11    12 1
    22    11    13 1
    23    14    15 1
    24    15    16 1
    25    15    17 1
    26    15    18 1
    27    18    19 1
    28    19    20 1
    29    19    46 1
    30    19    47 1
    31    20    21 1
    32    20    26 1
    33    20    48 1
    34    21    22 1
    35    21    23 1
    36    21    49 1
    37    22    50 1
    38    23    24 1
    39    23    25 1
    40    23    51 1
    41    24    52 1
    42    25    26 1
    43    25    27 1
    44    25    57 1
    45    27    28 1
    46    27    31 1
    47    28    29 2
    48    28    53 1
    49    29    30 1
    50    30    31 2
    51    30    32 1
    52    31    36 1
    53    32    33 2
    54    32    34 1
    55    34    35 1
    56    34    54 1
    57    35    36 2
    58    35    37 1
    59    37    55 1
    60    37    56 1
    61     3    58 1
    62    59    37 1
@<TRIPOS>SUBSTRUCTURE
     1 FEG         1 TEMP              0 ****  ****    0 ROOT
