@<TRIPOS>MOLECULE
FEH
   20    20     1     0     0
SMALL
bcc


@<TRIPOS>ATOM
      1 C4          0.0680    0.2200   -0.0560 ca        1 FEH     -0.112500
      2 C5          1.4620    0.1840   -0.0260 ca        1 FEH     -0.134000
      3 C6          2.1320   -0.0280    1.1780 ca        1 FEH     -0.126000
      4 C7          1.4060   -0.1990    2.3570 ca        1 FEH     -0.134000
      5 C8          0.0140   -0.1600    2.3330 ca        1 FEH     -0.112500
      6 C2         -0.6620    0.0460    1.1230 ca        1 FEH     -0.092300
      7 C1         -2.1600    0.0830    1.1290 c3        1 FEH      0.192400
      8 O1         -2.6190    0.6410   -0.0950 oh        1 FEH     -0.600800
      9 C3         -2.7270   -1.3350    1.3080 c3        1 FEH      0.092400
     10 O2         -4.1370   -1.1870    1.3620 oh        1 FEH     -0.615800
     11 H1         -0.4660    0.3950   -1.0040 ha        1 FEH      0.142000
     12 H2          2.0320    0.3240   -0.9560 ha        1 FEH      0.132000
     13 H3          3.2310   -0.0570    1.2000 ha        1 FEH      0.131000
     14 H4          1.9330   -0.3620    3.3090 ha        1 FEH      0.132000
     15 H5         -0.5570   -0.2880    3.2640 ha        1 FEH      0.142000
     16 H6         -2.5230    0.7300    1.9810 h1        1 FEH      0.054700
     17 H7         -3.5830    0.5690   -0.0780 ho        1 FEH      0.420000
     18 H8         -2.4360   -1.9820    0.4390 h1        1 FEH      0.039700
     19 H9         -2.3470   -1.7850    2.2620 h1        1 FEH      0.039700
     20 H10        -4.5100   -2.0760    1.3740 ho        1 FEH      0.409000
@<TRIPOS>BOND
     1    1    2 ar  
     2    1    6 ar  
     3    1   11 1   
     4    2    3 ar  
     5    2   12 1   
     6    3    4 ar  
     7    3   13 1   
     8    4    5 ar  
     9    4   14 1   
    10    5    6 ar  
    11    5   15 1   
    12    6    7 1   
    13    7    8 1   
    14    7    9 1   
    15    7   16 1   
    16    8   17 1   
    17    9   10 1   
    18    9   18 1   
    19    9   19 1   
    20   10   20 1   
@<TRIPOS>SUBSTRUCTURE
     1 FEH         1 TEMP              0 ****  ****    0 ROOT
