@<TRIPOS>MOLECULE
molecule
   20    20     1     0     0
SMALL
bcc


@<TRIPOS>ATOM
      1 C4           0.0000     0.0000     0.0000 ca         1 FEH      -0.109000
      2 C5           1.3820     0.0000     0.0000 ca         1 FEH      -0.133000
      3 C6           2.0750     0.0000     1.1970 ca         1 FEH      -0.123000
      4 C7           1.3840     0.0010     2.3940 ca         1 FEH      -0.133000
      5 C8           0.0010     0.0020     2.3940 ca         1 FEH      -0.109000
      6 C2          -0.6900     0.0070     1.1980 ca         1 FEH      -0.114300
      7 C1          -2.1980     0.0080     1.1980 c3         1 FEH       0.199400
      8 O1          -2.6730     0.7870     0.0980 oh         1 FEH      -0.595800
      9 C3          -2.7080    -1.4280     1.0670 c3         1 FEH       0.135400
     10 O2          -4.1320    -1.4400     1.1840 oh         1 FEH      -0.610800
     11 H1          -0.5420     0.0020    -0.9380 ha         1 FEH       0.138000
     12 H2           1.9240    -0.0030    -0.9380 ha         1 FEH       0.130500
     13 H3           3.1580    -0.0000     1.1960 ha         1 FEH       0.129000
     14 H4           1.9260    -0.0010     3.3320 ha         1 FEH       0.130500
     15 H5          -0.5400     0.0050     3.3330 ha         1 FEH       0.138000
     16 H6          -2.5580     0.4350     2.1260 h1         1 FEH       0.047700
     17 H7          -3.1200     1.5510     0.4230 ho         1 FEH       0.408000
     18 H8          -2.2760    -2.0380     1.8500 h1         1 FEH       0.033200
     19 H9          -2.4220    -1.8250     0.1000 h1         1 FEH       0.033200
     20 H10         -4.4400    -2.3310     1.1870 ho         1 FEH       0.404000
@<TRIPOS>BOND
     1     4     3 ar
     2     4     5 ar
     3     3     2 ar
     4     5     6 ar
     5     2     1 ar
     6     6     1 ar
     7     6     7 1
     8     8     7 1
     9     7     9 1
    10     9    10 1
    11     1    11 1
    12     2    12 1
    13     3    13 1
    14     4    14 1
    15     5    15 1
    16     7    16 1
    17     8    17 1
    18     9    18 1
    19     9    19 1
    20    10    20 1
@<TRIPOS>SUBSTRUCTURE
     1 FEH         1 TEMP              0 ****  ****    0 ROOT
