@<TRIPOS>MOLECULE
molecule
   43    43     1     0     0
SMALL
bcc


@<TRIPOS>ATOM
      1 OAD          0.0000     0.0000     0.0000 o          1 FEJ      -0.911833
      2 PAP          1.6100     0.0000     0.0000 p5         1 FEJ       1.183900
      3 OAE          2.1460     0.0000     1.5180 o          1 FEJ      -0.911833
      4 OAQ          2.1040    -1.2090    -0.6970 o          1 FEJ      -0.911833
      5 OAC          2.1470     1.3150    -0.7580 os         1 FEJ      -0.586200
      6 CAB          3.5330     1.5520    -1.0160 c3         1 FEJ       0.248700
      7 CAM          3.6910     2.8650    -1.7380 ca         1 FEJ      -0.141600
      8 CAO          2.5870     3.6300    -2.0470 ca         1 FEJ       0.419200
      9 NAR          2.7110     4.7820    -2.6800 nb         1 FEJ      -0.718000
     10 CAS          3.8840     5.2570    -3.0450 ca         1 FEJ       0.322600
     11 CAA          3.9600     6.5790    -3.7660 c3         1 FEJ      -0.123400
     12 CAT          5.0510     4.5560    -2.7760 ca         1 FEJ       0.006800
     13 OAU          6.2570     5.0490    -3.1540 oh         1 FEJ      -0.496100
     14 CAN          4.9630     3.3280    -2.1000 ca         1 FEJ      -0.132900
     15 CAL          6.1730     2.5430    -1.7880 ce         1 FEJ       0.432800
     16 N            7.3370     2.9840    -2.1400 n2         1 FEJ      -0.551900
     17 CA           8.5390     2.2050    -1.8300 c3         1 FEJ      -0.000500
     18 C            9.4560     3.0210    -0.9570 c          1 FEJ       0.905600
     19 O            9.4040     4.2280    -0.9890 o          1 FEJ      -0.846300
     20 OXT         10.3290     2.4080    -0.1440 o          1 FEJ      -0.846300
     21 CB           9.2610     1.8440    -3.1300 c3         1 FEJ       0.179100
     22 OG          10.4230     1.0670    -2.8310 oh         1 FEJ      -0.590800
     23 CG           8.3230     1.0330    -4.0270 c3         1 FEJ      -0.096700
     24 CD2          9.0030     0.7700    -5.3720 c3         1 FEJ      -0.083600
     25 CD1          7.9970    -0.3010    -3.3500 c3         1 FEJ      -0.083600
     26 H3           4.0740     1.5880    -0.0780 h1         1 FEJ       0.040700
     27 H4           3.9280     0.7520    -1.6300 h1         1 FEJ       0.040700
     28 H5           1.6010     3.2800    -1.7670 h4         1 FEJ       0.072100
     29 H6           2.9590     6.9190    -4.0010 hc         1 FEJ       0.027367
     30 H7           4.5250     6.4590    -4.6820 hc         1 FEJ       0.027367
     31 H8           4.4490     7.3080    -3.1320 hc         1 FEJ       0.027367
     32 H9           6.5020     5.7560    -2.5790 ho         1 FEJ       0.412000
     33 H10          6.0870     1.5980    -1.2650 h4         1 FEJ      -0.006200
     34 H11          8.2570     1.2980    -1.3090 h1         1 FEJ       0.049700
     35 H13          9.5560     2.7510    -3.6430 h1         1 FEJ       0.035700
     36 H14         11.1850     1.4910    -3.1900 ho         1 FEJ       0.378000
     37 H15          7.4070     1.5890    -4.1880 hc         1 FEJ       0.074700
     38 H16          8.3070     0.2750    -6.0380 hc         1 FEJ       0.025867
     39 H17          9.8690     0.1380    -5.2210 hc         1 FEJ       0.025867
     40 H18          9.3140     1.7110    -5.8090 hc         1 FEJ       0.025867
     41 H19          7.1000    -0.7190    -3.7900 hc         1 FEJ       0.025867
     42 H20          7.8380    -0.1390    -2.2910 hc         1 FEJ       0.025867
     43 H21          8.8230    -0.9880    -3.4900 hc         1 FEJ       0.025867
@<TRIPOS>BOND
     1    11    10 1
     2    10     9 ar
     3    10    12 ar
     4    13    12 1
     5     9     8 ar
     6    12    14 ar
     7    19    18 1
     8     8     7 ar
     9    14     7 ar
    10    14    15 1
    11    18    20 1
    12    18    17 1
    13    16    15 2
    14    16    17 1
    15     7     6 1
    16    17    21 1
    17    22    21 1
    18     6     5 1
    19     4     2 1
    20    21    23 1
    21     5     2 1
    22     2     1 1
    23     2     3 1
    24    23    25 1
    25    23    24 1
    26     6    26 1
    27     6    27 1
    28     8    28 1
    29    11    29 1
    30    11    30 1
    31    11    31 1
    32    13    32 1
    33    15    33 1
    34    17    34 1
    35    21    35 1
    36    22    36 1
    37    23    37 1
    38    24    38 1
    39    24    39 1
    40    24    40 1
    41    25    41 1
    42    25    42 1
    43    25    43 1
@<TRIPOS>SUBSTRUCTURE
     1 FEJ         1 TEMP              0 ****  ****    0 ROOT
