@<TRIPOS>MOLECULE
molecule
   23    23     1     0     0
SMALL
bcc


@<TRIPOS>ATOM
      1 OAF          0.0000     0.0000     0.0000 oh         1 FEK      -0.579800
      2 CAC          1.4300     0.0000     0.0000 c3         1 FEK       0.183300
      3 CAD          1.9380     0.0000     1.4430 c3         1 FEK       0.115100
      4 OAG          1.2630    -1.0150     2.1900 oh         1 FEK      -0.580800
      5 CAE          1.6460     1.3740     2.0600 c3         1 FEK       0.163600
      6 FAH          1.9520     1.3500     3.4250 f          1 FEK      -0.240300
      7 CAA          2.5180     2.4160     1.3550 c3         1 FEK       0.154300
      8 CAB          2.3960     2.2700    -0.1330 c2         1 FEK      -0.139200
      9 CAI          1.9260     1.2180    -0.7240 c2         1 FEK      -0.148400
     10 CAJ          1.8760     1.2140    -2.2290 c3         1 FEK       0.182600
     11 OAK          2.3890     2.4520    -2.7250 oh         1 FEK      -0.611800
     12 H1          -0.3140    -0.7930    -0.4020 ho         1 FEK       0.405000
     13 H2           1.7920    -0.8870    -0.5050 h1         1 FEK       0.037700
     14 H3           3.0050    -0.1830     1.4520 h1         1 FEK       0.043700
     15 H4           1.8890    -1.6510     2.4930 ho         1 FEK       0.404000
     16 H5           0.6010     1.6200     1.9200 h1         1 FEK       0.105700
     17 H6           3.5520     2.2710     1.6440 h1         1 FEK       0.047700
     18 H8           2.7210     3.0970    -0.7530 ha         1 FEK       0.164000
     19 H9           2.4780     0.3970    -2.6090 h1         1 FEK       0.031200
     20 H10          0.8510     1.0900    -2.5570 h1         1 FEK       0.031200
     21 H11          2.3740     2.4430    -3.6680 ho         1 FEK       0.407000
     22 O1           2.0930     3.7250     1.7370 oh         1 FEK      -0.584800
     23 H7           2.8450     4.2450     1.9660 ho         1 FEK       0.406000
@<TRIPOS>BOND
     1     4     3 1
     2     3     2 1
     3     3     5 1
     4     6     5 1
     5     2     9 1
     6     2     1 1
     7    10     9 1
     8    10    11 1
     9     9     8 2
    10     5     7 1
    11     8     7 1
    12     1    12 1
    13     2    13 1
    14     3    14 1
    15     4    15 1
    16     5    16 1
    17     7    17 1
    18     8    18 1
    19    10    19 1
    20    10    20 1
    21    11    21 1
    22     7    22 1
    23    22    23 1
@<TRIPOS>SUBSTRUCTURE
     1 FEK         1 TEMP              0 ****  ****    0 ROOT
