@<TRIPOS>MOLECULE
FEN
   62    68     1     0     0
SMALL
bcc


@<TRIPOS>ATOM
      1 C1           0.0000     0.0000     0.0000 c3         1 FEN      -0.040000
      2 C2           1.5270     0.0000     0.0000 c3         1 FEN      -0.106000
      3 C3           2.0210     0.0000     1.4250 c3         1 FEN      -0.114000
      4 C4           1.8380     1.4190     1.8500 c3         1 FEN      -0.057000
      5 C5           0.3430     1.7210     1.7840 c2         1 FEN      -0.116000
      6 C6          -0.4730     0.7320     1.3010 c3         1 FEN      -0.015000
      7 C7          -1.9190     0.7440     1.3860 c2         1 FEN      -0.161000
      8 C8          -2.6960     1.8770     1.4370 c2         1 FEN       0.035000
      9 C9          -4.1600     1.8830     1.4540 c3         1 FEN      -0.169000
     10 C10         -4.7210     3.1170     1.4640 c2         1 FEN      -0.255000
     11 C11         -6.1570     3.4500     1.5240 c3         1 FEN      -0.178000
     12 C12         -6.5740     4.7430     1.6680 c2         1 FEN      -0.025000
     13 C13         -7.9570     5.1250     1.5060 c3         1 FEN       0.078000
     14 C14         -8.3840     6.4390     1.7360 c2         1 FEN      -0.355000
     15 C15         -9.8080     6.8710     1.6280 c3         1 FEN       0.085000
     16 C16         -0.7740    -1.2780    -0.4360 c3         1 FEN      -0.113500
     17 C17         -0.3960     0.9360    -1.1270 c3         1 FEN      -0.113500
     18 C18         -0.0980     2.4820     3.0490 c3         1 FEN      -0.093000
     19 C19         -4.8980     0.6290     0.9260 c3         1 FEN      -0.070000
     20 C20         -8.8970     4.0500     1.0550 c3         1 FEN      -0.123000
     21 C1'        -11.4890     8.4320     1.0660 ca         1 FEN      -0.129000
     22 C2'        -12.5710     8.7740     0.2160 ca         1 FEN      -0.092500
     23 C3'        -13.6120     9.6330     0.5990 ca         1 FEN      -0.125500
     24 C4'        -13.6230    10.1950     1.8680 ca         1 FEN       0.071000
     25 C5'        -12.5780     9.8950     2.7210 ca         1 FEN      -0.125500
     26 C6'        -11.5270     9.0200     2.3350 ca         1 FEN      -0.092500
     27 O           -9.9870     6.4830     2.9200 o          1 FEN      -0.429000
     28 N          -10.4670     7.5880     0.6750 nu         1 FEN       0.203000
     29 O4'        -14.6500    10.9650     2.2320 oh         1 FEN      -0.245000
     30 H21          1.8880     0.8860    -0.5070 hc         1 FEN       0.063000
     31 H22          1.8880    -0.8870    -0.5070 hc         1 FEN       0.063000
     32 H31          1.4200    -0.6610     2.0370 hc         1 FEN       0.064000
     33 H32          3.0680    -0.2770     1.4650 hc         1 FEN       0.064000
     34 H41          2.3770     2.0760     1.1780 hc         1 FEN       0.066500
     35 H42          2.1950     1.5470     2.8650 hc         1 FEN       0.066500
     36 H7          -1.2800     1.0880     2.1900 DU         1 FEN       0.096000
     37 H8          -3.2760     1.5100     2.2750 DU         1 FEN       0.081000
     38 H10         -5.4480     2.7560     0.7470 DU         1 FEN       0.276000
     39 H11         -5.5970     3.3270     2.4430 hc         1 FEN       0.184000
     40 H12         -7.2660     4.6070     2.4900 DU         1 FEN       0.096000
     41 H14         -8.9140     6.5130     0.7950 DU         1 FEN       0.176000
     42 H161        -0.1530    -1.8660    -1.1010 hc         1 FEN       0.048000
     43 H162        -1.0230    -1.8650     0.4390 hc         1 FEN       0.048000
     44 H163        -1.6840    -0.9920    -0.9500 hc         1 FEN       0.048000
     45 H171        -1.4750     0.9450    -1.2270 hc         1 FEN       0.048000
     46 H172         0.0490     0.5950    -2.0530 hc         1 FEN       0.048000
     47 H173        -0.0460     1.9370    -0.9050 hc         1 FEN       0.048000
     48 H181         0.7540     2.9990     3.4750 hc         1 FEN       0.058667
     49 H182        -0.8640     3.2020     2.7880 hc         1 FEN       0.058667
     50 H183        -0.4930     1.7800     3.7730 hc         1 FEN       0.058667
     51 H191        -5.9060     0.6110     1.3200 hc         1 FEN       0.061000
     52 H192        -4.3690    -0.2620     1.2430 hc         1 FEN       0.061000
     53 H193        -4.9340     0.6600    -0.1570 hc         1 FEN       0.061000
     54 H201        -8.9370     3.2670     1.8030 hc         1 FEN       0.062667
     55 H202        -9.8870     4.4690     0.9180 hc         1 FEN       0.062667
     56 H203        -8.5480     3.6350     0.1170 hc         1 FEN       0.062667
     57 H2'        -12.5940     8.3510    -0.7810 ha         1 FEN       0.117500
     58 H3'        -14.4140     9.8520    -0.0960 ha         1 FEN       0.113000
     59 H5'        -12.5680    10.3260     3.7150 ha         1 FEN       0.113000
     60 H6'        -10.7310     8.8090     3.0390 ha         1 FEN       0.117500
     61 HN         -10.0950     7.6490    -0.2520 hn         1 FEN       0.080000
     62 HO4'       -14.4440    11.8680     2.0570 ho         1 FEN       0.200000
@<TRIPOS>BOND
     1     1     2 1   
     2     1     6 1   
     3     1    16 1   
     4     1    17 1   
     5     2     3 1   
     6     2    30 1   
     7     2    31 1   
     8     3     4 1   
     9     3    32 1   
    10     3    33 1   
    11     4     5 1   
    12     4    34 1   
    13     4    35 1   
    14     5     6 1   
    15     5    18 1   
    16     6     7 1   
    17     6    36 1   
    18     7     8 1   
    19     7    36 1   
    20     8     9 1   
    21     8    37 1   
    22     9    10 1   
    23     9    19 1   
    24     9    37 1   
    25    10    11 1   
    26    10    38 1   
    27    11    12 1   
    28    11    38 1   
    29    11    39 1   
    30    12    13 1   
    31    12    40 1   
    32    13    14 1   
    33    13    20 1   
    34    13    40 1   
    35    14    15 1   
    36    14    41 1   
    37    15    27 1   
    38    15    28 1   
    39    15    41 1   
    40    16    42 1   
    41    16    43 1   
    42    16    44 1   
    43    17    45 1   
    44    17    46 1   
    45    17    47 1   
    46    18    48 1   
    47    18    49 1   
    48    18    50 1   
    49    19    51 1   
    50    19    52 1   
    51    19    53 1   
    52    20    54 1   
    53    20    55 1   
    54    20    56 1   
    55    21    22 1   
    56    21    26 1   
    57    21    28 1   
    58    22    23 1   
    59    22    57 1   
    60    23    24 1   
    61    23    58 1   
    62    24    25 1   
    63    24    29 1   
    64    25    26 1   
    65    25    59 1   
    66    26    60 1   
    67    28    61 1   
    68    29    62 1   
@<TRIPOS>SUBSTRUCTURE
     1 FEN         1 TEMP              0 ****  ****    0 ROOT
