@<TRIPOS>MOLECULE
molecule
   62    63     1     0     0
SMALL
bcc


@<TRIPOS>ATOM
      1 C1           0.0000     0.0000     0.0000 c3         1 FEN      -0.033800
      2 C2           1.5270     0.0000     0.0000 c3         1 FEN      -0.066400
      3 C3           2.0210     0.0000     1.4250 c3         1 FEN      -0.082400
      4 C4           1.8380     1.4190     1.8500 c3         1 FEN      -0.046200
      5 C5           0.3430     1.7210     1.7840 c2         1 FEN      -0.112400
      6 C6          -0.4730     0.7320     1.3010 ce         1 FEN      -0.057200
      7 C7          -1.9190     0.7440     1.3860 ce         1 FEN      -0.127000
      8 C8          -2.6960     1.8770     1.4370 cf         1 FEN      -0.139000
      9 C9          -4.1600     1.8830     1.4540 cf         1 FEN      -0.074200
     10 C10         -4.7210     3.1170     1.4640 ce         1 FEN      -0.130000
     11 C11         -6.1570     3.4500     1.5240 ce         1 FEN      -0.131000
     12 C12         -6.5740     4.7430     1.6680 cf         1 FEN      -0.112000
     13 C13         -7.9570     5.1250     1.5060 cf         1 FEN      -0.114200
     14 C14         -8.3840     6.4390     1.7360 ce         1 FEN      -0.135200
     15 C15         -9.8080     6.8710     1.6280 c          1 FEN       0.602300
     16 C16         -0.7740    -1.2780    -0.4360 c3         1 FEN      -0.082600
     17 C17         -0.3960     0.9360    -1.1270 c3         1 FEN      -0.082600
     18 C18         -0.0980     2.4820     3.0490 c3         1 FEN      -0.060900
     19 C19         -4.8980     0.6290     0.9260 c3         1 FEN      -0.041900
     20 C20         -8.8970     4.0500     1.0550 c3         1 FEN      -0.047900
     21 C1'        -11.4890     8.4320     1.0660 ca         1 FEN       0.021600
     22 C2'        -12.5710     8.7740     0.2160 ca         1 FEN      -0.131500
     23 C3'        -13.6120     9.6330     0.5990 ca         1 FEN      -0.139000
     24 C4'        -13.6230    10.1950     1.8680 ca         1 FEN       0.104100
     25 C5'        -12.5780     9.8950     2.7210 ca         1 FEN      -0.139000
     26 C6'        -11.5270     9.0200     2.3350 ca         1 FEN      -0.131500
     27 O           -9.9870     6.4830     2.9200 o          1 FEN      -0.612100
     28 N          -10.4670     7.5880     0.6750 ns         1 FEN      -0.393100
     29 O4'        -14.6500    10.9650     2.2320 oh         1 FEN      -0.514100
     30 H21          1.8880    -0.8860    -0.5070 hc         1 FEN       0.044700
     31 H22          1.8880     0.8860    -0.5070 hc         1 FEN       0.044700
     32 H31          3.0680    -0.2770     1.4650 hc         1 FEN       0.050200
     33 H32          1.4200    -0.6610     2.0370 hc         1 FEN       0.050200
     34 H41          2.1950     1.5480     2.8640 hc         1 FEN       0.050200
     35 H42          2.3760     2.0760     1.1770 hc         1 FEN       0.050200
     36 H7          -2.4210    -0.2160     1.3590 ha         1 FEN       0.128000
     37 H8          -2.1990     2.8390     1.4130 ha         1 FEN       0.127000
     38 H10         -4.0450     3.9640     1.4570 ha         1 FEN       0.118000
     39 H11         -6.8830     2.6830     1.2840 ha         1 FEN       0.129000
     40 H12         -5.8300     5.5270     1.7420 ha         1 FEN       0.121000
     41 H14         -7.6510     7.1770     2.0410 ha         1 FEN       0.150000
     42 H161        -0.8620    -1.9520     0.4070 hc         1 FEN       0.036033
     43 H162        -1.7620    -1.0010    -0.7820 hc         1 FEN       0.036033
     44 H163        -0.2360    -1.7700    -1.2370 hc         1 FEN       0.036033
     45 H171        -1.4720     0.9120    -1.2550 hc         1 FEN       0.036033
     46 H172        -0.0840     1.9450    -0.8850 hc         1 FEN       0.036033
     47 H173         0.0840     0.6200    -2.0450 hc         1 FEN       0.036033
     48 H181        -0.6970     1.8290     3.6720 hc         1 FEN       0.041700
     49 H182         0.7770     2.8040     3.6000 hc         1 FEN       0.041700
     50 H183        -0.6840     3.3470     2.7640 hc         1 FEN       0.041700
     51 H191        -4.7890     0.5720    -0.1510 hc         1 FEN       0.042700
     52 H192        -4.4720    -0.2580     1.3790 hc         1 FEN       0.042700
     53 H193        -5.9490     0.6950     1.1790 hc         1 FEN       0.042700
     54 H201        -9.8870     4.4690     0.9180 hc         1 FEN       0.042700
     55 H202        -8.5480     3.6350     0.1170 hc         1 FEN       0.042700
     56 H203        -8.9370     3.2670     1.8030 hc         1 FEN       0.042700
     57 H2'        -12.5940     8.3510    -0.7810 ha         1 FEN       0.142000
     58 H3'        -14.4140     9.8520    -0.0960 ha         1 FEN       0.146000
     59 H5'        -12.5680    10.3260     3.7150 ha         1 FEN       0.146000
     60 H6'        -10.7310     8.8090     3.0390 ha         1 FEN       0.142000
     61 HN         -10.0950     7.6490    -0.2520 hn         1 FEN       0.353500
     62 HO4'       -15.3080    10.4340     2.6500 ho         1 FEN       0.425000
@<TRIPOS>BOND
     1     1     2 1
     2     1     6 1
     3     1    16 1
     4     1    17 1
     5     2     3 1
     6     2    30 1
     7     2    31 1
     8     3     4 1
     9     3    32 1
    10     3    33 1
    11     4     5 1
    12     4    34 1
    13     4    35 1
    14     5     6 2
    15     5    18 1
    16     6     7 1
    17     7     8 2
    18     7    36 1
    19     8     9 1
    20     8    37 1
    21     9    10 2
    22     9    19 1
    23    10    11 1
    24    10    38 1
    25    11    12 2
    26    11    39 1
    27    12    13 1
    28    12    40 1
    29    13    14 2
    30    13    20 1
    31    14    15 1
    32    14    41 1
    33    15    27 2
    34    15    28 1
    35    16    42 1
    36    16    43 1
    37    16    44 1
    38    17    45 1
    39    17    46 1
    40    17    47 1
    41    18    48 1
    42    18    49 1
    43    18    50 1
    44    19    51 1
    45    19    52 1
    46    19    53 1
    47    20    54 1
    48    20    55 1
    49    20    56 1
    50    21    22 ar
    51    21    26 ar
    52    21    28 1
    53    22    23 ar
    54    22    57 1
    55    23    24 ar
    56    23    58 1
    57    24    25 ar
    58    24    29 1
    59    25    26 ar
    60    25    59 1
    61    26    60 1
    62    28    61 1
    63    29    62 1
@<TRIPOS>SUBSTRUCTURE
     1 FEN         1 TEMP              0 ****  ****    0 ROOT
