@<TRIPOS>MOLECULE
FEP
   46    45     1     0     0
SMALL
bcc


@<TRIPOS>ATOM
      1 C1          0.0180   -0.0050   -0.0610 c3        1 FEP     -0.095000
      2 C2          1.5350    0.0010    0.0040 c3        1 FEP     -0.156000
      3 C3          2.0350   -0.0060    1.4370 c3        1 FEP     -0.156000
      4 C4          3.5520    0.0010    1.5020 c3        1 FEP     -0.095000
      5 C5         -2.2320    0.0240   -5.4120 c2        1 FEP     -0.258000
      6 C6         -0.5160    0.0020   -1.4500 ca        1 FEP     -0.161000
      7 C7         -0.8060   -1.1970   -2.1150 ca        1 FEP     -0.125000
      8 C8         -1.3320   -1.1930   -3.4020 ca        1 FEP     -0.164000
      9 C9         -1.5860    0.0160   -4.0780 ca        1 FEP      0.028000
     10 C10        -1.3130    1.2170   -3.3970 ca        1 FEP     -0.164000
     11 C11        -0.7870    1.2070   -2.1110 ca        1 FEP     -0.125000
     12 C12         5.8010   -0.0280    6.8540 c2        1 FEP     -0.258000
     13 C13         4.0850   -0.0060    2.8910 ca        1 FEP     -0.161000
     14 C14         4.3430   -1.2110    3.5580 ca        1 FEP     -0.125000
     15 C15         4.8690   -1.2210    4.8440 ca        1 FEP     -0.164000
     16 C16         5.1560   -0.0190    5.5200 ca        1 FEP      0.028000
     17 C17         4.9150    1.1890    4.8370 ca        1 FEP     -0.164000
     18 C18         4.3890    1.1920    3.5510 ca        1 FEP     -0.125000
     19 F1         -1.9270   -1.0540   -6.2100 f         1 FEP     -0.208000
     20 F2         -1.9120    1.1000   -6.2050 f         1 FEP     -0.208000
     21 P1         -4.3340    0.0400   -6.1520 p3        1 FEP      2.520000
     22 OP1        -4.0710    0.0420   -7.6190 o         1 FEP     -1.200333
     23 OP2        -4.8370    1.3120   -5.5610 o         1 FEP     -1.200333
     24 OP3        -4.8540   -1.2280   -5.5670 o         1 FEP     -1.200333
     25 F3          5.5070    1.0560    7.6470 f         1 FEP     -0.208000
     26 F4          5.4710   -1.0980    7.6510 f         1 FEP     -0.208000
     27 P2          7.9030   -0.0610    7.5940 p3        1 FEP      2.520000
     28 OP4         7.6400   -0.0540    9.0610 o         1 FEP     -1.200333
     29 OP5         8.3940   -1.3410    7.0080 o         1 FEP     -1.200333
     30 OP6         8.4350    1.2000    7.0040 o         1 FEP     -1.200333
     31 HC11       -0.3700    0.8920    0.4930 hc        1 FEP      0.062000
     32 HC12       -0.3620   -0.9130    0.4810 hc        1 FEP      0.062000
     33 HC21        1.9250    0.9080   -0.5270 hc        1 FEP      0.073000
     34 HC22        1.9330   -0.8960   -0.5380 hc        1 FEP      0.073000
     35 HC31        1.6360    0.8910    1.9790 hc        1 FEP      0.073000
     36 HC32        1.6450   -0.9130    1.9680 hc        1 FEP      0.073000
     37 HC41        3.9400   -0.8970    0.9490 hc        1 FEP      0.062000
     38 HC42        3.9320    0.9090    0.9590 hc        1 FEP      0.062000
     39 HC7        -0.6140   -2.1530   -1.6080 ha        1 FEP      0.091000
     40 HC8        -1.5720   -2.1370   -3.9120 ha        1 FEP      0.133000
     41 H10        -1.5370    2.1670   -3.9030 ha        1 FEP      0.133000
     42 H11        -0.5790    2.1590   -1.5990 ha        1 FEP      0.091000
     43 H14         4.1240   -2.1620    3.0510 ha        1 FEP      0.091000
     44 H15         5.0820   -2.1710    5.3550 ha        1 FEP      0.133000
     45 H17         5.1660    2.1320    5.3430 ha        1 FEP      0.133000
     46 H18         4.2080    2.1490    3.0390 ha        1 FEP      0.091000
@<TRIPOS>BOND
     1    1    2 1   
     2    1    6 1   
     3    1   31 1   
     4    1   32 1   
     5    2    3 1   
     6    2   33 1   
     7    2   34 1   
     8    3    4 1   
     9    3   35 1   
    10    3   36 1   
    11    4   13 1   
    12    4   37 1   
    13    4   38 1   
    14    5    9 1   
    15    5   19 1   
    16    5   20 1   
    17    6    7 1   
    18    6   11 1   
    19    7    8 1   
    20    7   39 1   
    21    8    9 1   
    22    8   40 1   
    23    9   10 1   
    24   10   11 1   
    25   10   41 1   
    26   11   42 1   
    27   12   16 1   
    28   12   25 1   
    29   12   26 1   
    30   13   14 1   
    31   13   18 1   
    32   14   15 1   
    33   14   43 1   
    34   15   16 1   
    35   15   44 1   
    36   16   17 1   
    37   17   18 1   
    38   17   45 1   
    39   18   46 1   
    40   21   22 1   
    41   21   23 1   
    42   21   24 1   
    43   27   28 1   
    44   27   29 1   
    45   27   30 1   
@<TRIPOS>SUBSTRUCTURE
     1 FEP         1 TEMP              0 ****  ****    0 ROOT
