@<TRIPOS>MOLECULE
molecule
   46    47     1     0     0
SMALL
bcc


@<TRIPOS>ATOM
      1 C1           0.0000     0.0000     0.0000 c3         1 FEP      -0.026600
      2 C2           1.5300     0.0000     0.0000 c3         1 FEP      -0.080400
      3 C3           2.0410     0.0000     1.4410 c3         1 FEP      -0.080400
      4 C4           3.5690     0.0010     1.4410 c3         1 FEP      -0.026600
      5 C5          -1.9310     0.0050    -5.4460 c3         1 FEP       0.324700
      6 C6          -0.5030     0.0010    -1.4210 ca         1 FEP      -0.111800
      7 C7          -0.7320    -1.1960    -2.0740 ca         1 FEP      -0.150500
      8 C8          -1.1950    -1.1940    -3.3760 ca         1 FEP      -0.083500
      9 C9          -1.4270     0.0030    -4.0260 ca         1 FEP      -0.074300
     10 C10         -1.1930     1.1990    -3.3740 ca         1 FEP      -0.083500
     11 C11         -0.7340     1.1990    -2.0700 ca         1 FEP      -0.150500
     12 C12          5.4980    -0.0040     6.8880 c3         1 FEP       0.324700
     13 C13          4.0720    -0.0010     2.8610 ca         1 FEP      -0.111800
     14 C14          4.3050    -1.1970     3.5110 ca         1 FEP      -0.150500
     15 C15          4.7670    -1.1990     4.8140 ca         1 FEP      -0.083500
     16 C16          4.9970    -0.0030     5.4670 ca         1 FEP      -0.074300
     17 C17          4.7660     1.1940     4.8170 ca         1 FEP      -0.083500
     18 C18          4.3070     1.1960     3.5130 ca         1 FEP      -0.150500
     19 F1          -1.4920    -1.1520    -6.0980 f          1 FEP      -0.273550
     20 F2          -1.4390     1.1310    -6.1140 f          1 FEP      -0.273550
     21 P1          -3.7530     0.0490    -5.4450 p5         1 FEP       0.987200
     22 OP1         -4.2450     0.1540    -6.8370 o          1 FEP      -0.878333
     23 OP2         -4.2590     1.3200    -4.5980 o          1 FEP      -0.878333
     24 OP3         -4.3210    -1.3020    -4.7770 o          1 FEP      -0.878333
     25 F3           5.0850     1.1670     7.5300 f          1 FEP      -0.273550
     26 F4           4.9800    -1.1130     7.5640 f          1 FEP      -0.273550
     27 P2           7.3190    -0.0880     6.8900 p5         1 FEP       0.987200
     28 OP4          7.8100    -0.1290     8.2850 o          1 FEP      -0.878333
     29 OP5          7.7960    -1.4150     6.1130 o          1 FEP      -0.878333
     30 OP6          7.9160     1.2090     6.1480 o          1 FEP      -0.878333
     31 HC11        -0.3610    -0.8850     0.5100 hc         1 FEP       0.033200
     32 HC12        -0.3610     0.8840     0.5110 hc         1 FEP       0.033200
     33 HC21         1.8910     0.8840    -0.5110 hc         1 FEP       0.037700
     34 HC22         1.8910    -0.8840    -0.5110 hc         1 FEP       0.037700
     35 HC31         1.6790     0.8840     1.9520 hc         1 FEP       0.037700
     36 HC32         1.6810    -0.8850     1.9520 hc         1 FEP       0.037700
     37 HC41         3.9310    -0.8820     0.9290 hc         1 FEP       0.033200
     38 HC42         3.9300     0.8870     0.9310 hc         1 FEP       0.033200
     39 HC7         -0.5500    -2.1340    -1.5650 ha         1 FEP       0.100750
     40 HC8         -1.3740    -2.1320    -3.8880 ha         1 FEP       0.144250
     41 H10         -1.3750     2.1380    -3.8830 ha         1 FEP       0.144250
     42 H11         -0.5510     2.1360    -1.5590 ha         1 FEP       0.100750
     43 H14          4.1240    -2.1350     3.0000 ha         1 FEP       0.100750
     44 H15          4.9490    -2.1380     5.3230 ha         1 FEP       0.144250
     45 H17          4.9500     2.1320     5.3270 ha         1 FEP       0.144250
     46 H18          4.1260     2.1350     3.0030 ha         1 FEP       0.100750
@<TRIPOS>BOND
     1     1     2 1
     2     1     6 1
     3     1    31 1
     4     1    32 1
     5     2     3 1
     6     2    33 1
     7     2    34 1
     8     3     4 1
     9     3    35 1
    10     3    36 1
    11     4    13 1
    12     4    37 1
    13     4    38 1
    14     5     9 1
    15     5    19 1
    16     5    20 1
    17     5    21 1
    18     6     7 ar
    19     6    11 ar
    20     7     8 ar
    21     7    39 1
    22     8     9 ar
    23     8    40 1
    24     9    10 ar
    25    10    11 ar
    26    10    41 1
    27    11    42 1
    28    12    16 1
    29    12    25 1
    30    12    26 1
    31    12    27 1
    32    13    14 ar
    33    13    18 ar
    34    14    15 ar
    35    14    43 1
    36    15    16 ar
    37    15    44 1
    38    16    17 ar
    39    17    18 ar
    40    17    45 1
    41    18    46 1
    42    21    22 1
    43    21    23 1
    44    21    24 1
    45    27    28 1
    46    27    29 1
    47    27    30 1
@<TRIPOS>SUBSTRUCTURE
     1 FEP         1 TEMP              0 ****  ****    0 ROOT
