@<TRIPOS>MOLECULE
FEQ
   37    38     1     0     0
SMALL
bcc


@<TRIPOS>ATOM
      1 OAU          0.0000     0.0000     0.0000 o          1 FEQ      -0.438000
      2 NAT          1.2180     0.0000     0.0000 no         1 FEQ       1.054200
      3 OAV          1.8270     0.0000     1.0540 o          1 FEQ      -0.438000
      4 CAN          1.9590    -0.0070    -1.2820 ca         1 FEQ      -0.513200
      5 CAO          1.2680    -0.0080    -2.4790 ca         1 FEQ       0.118000
      6 CAP          1.9590    -0.0150    -3.6770 ca         1 FEQ      -0.518200
      7 NAS          1.2180    -0.0160    -4.9580 no         1 FEQ       1.056200
      8 OAX          1.8240    -0.0210    -6.0130 o          1 FEQ      -0.445500
      9 OAW         -0.0000    -0.0100    -4.9550 o          1 FEQ      -0.445500
     10 CAQ          3.3420    -0.0220    -3.6800 ca         1 FEQ       0.086000
     11 CAR          4.0370    -0.0210    -2.4860 ca         1 FEQ      -0.256000
     12 CAM          3.3460    -0.0080    -1.2820 ca         1 FEQ       0.288100
     13 OAL          4.0260    -0.0020    -0.1060 os         1 FEQ      -0.239900
     14 CAA          5.4480    -0.1280    -0.1780 c3         1 FEQ       0.189300
     15 CAB          6.0540     1.2200    -0.4360 c2         1 FEQ      -0.184200
     16 CAE          5.9750    -0.7010     1.1390 c3         1 FEQ       0.176600
     17 FAH          5.4430     0.0230     2.2120 f          1 FEQ      -0.209300
     18 CAD          7.5040    -0.5860     1.1400 c3         1 FEQ       0.146100
     19 OAG          8.0310    -1.1670    -0.0540 oh         1 FEQ      -0.561800
     20 CAC          7.8780     0.8970     1.2010 c3         1 FEQ       0.233300
     21 OAF          9.2790     1.0410     0.9610 oh         1 FEQ      -0.567800
     22 CAI          7.1140     1.6640     0.1610 c2         1 FEQ      -0.112400
     23 CAJ          7.6120     3.0370    -0.2110 c3         1 FEQ       0.274600
     24 OAK          6.7570     3.6000    -1.2090 oh         1 FEQ      -0.600800
     25 H1           0.1850    -0.0010    -2.4790 ha         1 FEQ       0.159000
     26 H2           3.8810    -0.0290    -4.6200 ha         1 FEQ       0.135000
     27 H3           5.1200    -0.0230    -2.4890 ha         1 FEQ       0.156000
     28 H4           5.7120    -0.7970    -0.9880 h1         1 FEQ       0.050700
     29 H5           5.5760     1.8610    -1.1670 ha         1 FEQ       0.143000
     30 H6           5.6900    -1.7430     1.2200 h1         1 FEQ       0.035700
     31 H7           7.9050    -1.0970     2.0070 h1         1 FEQ       0.016700
     32 H8           8.5100    -1.9500     0.1620 ho         1 FEQ       0.396000
     33 H9           7.6350     1.2860     2.1820 h1         1 FEQ       0.026700
     34 H10          9.7250     1.1870     1.7790 ho         1 FEQ       0.388000
     35 H11          7.6110     3.6720     0.6660 h1         1 FEQ       0.002700
     36 H12          8.6200     2.9620    -0.6010 h1         1 FEQ       0.002700
     37 H13          7.0660     4.4610    -1.4380 ho         1 FEQ       0.397000
@<TRIPOS>BOND
     1     1     2 1   
     2     2     3 1   
     3     2     4 1   
     4     4     5 ar  
     5     4    12 ar  
     6     5     6 ar  
     7     5    25 1   
     8     6     7 1   
     9     6    10 ar  
    10     7     8 1   
    11     7     9 1   
    12    10    11 ar  
    13    10    26 1   
    14    11    12 ar  
    15    11    27 1   
    16    12    13 1   
    17    13    14 1   
    18    14    15 1   
    19    14    16 1   
    20    14    28 1   
    21    15    22 2   
    22    15    29 1   
    23    16    17 1   
    24    16    18 1   
    25    16    30 1   
    26    18    19 1   
    27    18    20 1   
    28    18    31 1   
    29    19    32 1   
    30    20    21 1   
    31    20    22 1   
    32    20    33 1   
    33    21    34 1   
    34    22    23 1   
    35    23    24 1   
    36    23    35 1   
    37    23    36 1   
    38    24    37 1   
@<TRIPOS>SUBSTRUCTURE
     1 FEQ         1 TEMP              0 ****  ****    0 ROOT
