@<TRIPOS>MOLECULE
FER
   23    23     1     0     0
SMALL
bcc


@<TRIPOS>ATOM
      1 C4          0.1950    0.3570    0.3250 ca        1 FER      0.090100
      2 C5          1.5800    0.5370    0.4480 ca        1 FER     -0.154000
      3 C6          2.2440    0.0390    1.5630 ca        1 FER     -0.090000
      4 C3         -0.5060   -0.3310    1.3310 ca        1 FER     -0.013900
      5 C2          0.1660   -0.8390    2.4440 ca        1 FER     -0.135000
      6 C1          1.5510   -0.6550    2.5710 ca        1 FER     -0.020800
      7 C10        -2.6900    0.1230    2.0800 c3        1 FER      0.118700
      8 C7          2.2240   -1.2160    3.7300 ce        1 FER     -0.186200
      9 C8          3.3480   -0.7950    4.3200 cf        1 FER     -0.144200
     10 C9          4.2210    0.3940    3.9910 c         1 FER      0.895800
     11 O1          4.1710    1.3820    4.7760 o         1 FER     -0.831800
     12 O2          4.9920    0.3230    2.9900 o         1 FER     -0.831800
     13 O4         -0.4270    0.8580   -0.7990 oh        1 FER     -0.512100
     14 O3         -1.8690   -0.5530    1.1310 os        1 FER     -0.360900
     15 H5          2.1250    1.0780   -0.3380 ha        1 FER      0.141000
     16 H6          3.3380    0.1950    1.6760 ha        1 FER      0.211000
     17 H2         -0.3980   -1.3780    3.2180 ha        1 FER      0.127000
     18 H101       -3.7290   -0.2000    1.8220 h1        1 FER      0.032367
     19 H102       -2.5800    1.2290    1.9700 h1        1 FER      0.032367
     20 H103       -2.4260   -0.1860    3.1200 h1        1 FER      0.032367
     21 H7          1.6990   -2.0940    4.1530 ha        1 FER      0.084000
     22 H8          3.7190   -1.3480    5.2020 ha        1 FER      0.098000
     23 HO4        -1.3670    0.6330   -0.7260 ho        1 FER      0.418000
@<TRIPOS>BOND
     1    1    2 ar  
     2    1    4 ar  
     3    1   13 1   
     4    2    3 ar  
     5    2   15 1   
     6    3    6 ar  
     7    3   16 1   
     8    4    5 ar  
     9    4   14 1   
    10    5    6 ar  
    11    5   17 1   
    12    6    8 1   
    13    7   14 1   
    14    7   18 1   
    15    7   19 1   
    16    7   20 1   
    17    8    9 2   
    18    8   21 1   
    19    9   10 1   
    20    9   22 1   
    21   10   11 1   
    22   10   12 1   
    23   13   23 1   
@<TRIPOS>SUBSTRUCTURE
     1 FER         1 TEMP              0 ****  ****    0 ROOT
