@<TRIPOS>MOLECULE
molecule
   23    23     1     0     0
SMALL
bcc


@<TRIPOS>ATOM
      1 C4           0.0000     0.0000     0.0000 ca         1 FER       0.038100
      2 C5           1.3890     0.0000     0.0000 ca         1 FER      -0.133000
      3 C6           2.0820     0.0000     1.1900 ca         1 FER      -0.159000
      4 C3          -0.7000     0.0100     1.2050 ca         1 FER       0.099100
      5 C2          -0.0130     0.0110     2.4030 ca         1 FER      -0.224000
      6 C1           1.3850     0.0060     2.4040 ca         1 FER       0.017200
      7 C10         -2.4780     0.0200     2.5670 c3         1 FER       0.103700
      8 C7           2.1220     0.0070     3.6750 ce         1 FER      -0.184200
      9 C8           3.4720     0.0010     3.6740 cf         1 FER      -0.123200
     10 C9           4.1830     0.0020     4.9000 c          1 FER       0.857800
     11 O1           3.5760     0.0050     5.9540 o          1 FER      -0.839300
     12 O2           5.5320    -0.0040     4.9000 o          1 FER      -0.839300
     13 O4          -0.6770    -0.0010    -1.1770 oh         1 FER      -0.514100
     14 O3          -2.0600     0.0150     1.2010 os         1 FER      -0.298900
     15 H5           1.9290    -0.0060    -0.9390 ha         1 FER       0.127000
     16 H6           3.1650    -0.0020     1.1870 ha         1 FER       0.148000
     17 H2          -0.5570     0.0180     3.3400 ha         1 FER       0.146000
     18 H101        -3.5600     0.0240     2.6140 h1         1 FER       0.040033
     19 H102        -2.0920     0.9050     3.0600 h1         1 FER       0.040033
     20 H103        -2.0980    -0.8650     3.0640 h1         1 FER       0.040033
     21 H7           1.5820     0.0120     4.6140 ha         1 FER       0.153000
     22 H8           4.0130    -0.0040     2.7350 ha         1 FER       0.105000
     23 HO4         -0.5920    -0.8460    -1.5870 ho         1 FER       0.401000
@<TRIPOS>BOND
     1     1     2 ar
     2     1     4 ar
     3     1    13 1
     4     2     3 ar
     5     2    15 1
     6     3     6 ar
     7     3    16 1
     8     4     5 ar
     9     4    14 1
    10     5     6 ar
    11     5    17 1
    12     6     8 1
    13     7    14 1
    14     7    18 1
    15     7    19 1
    16     7    20 1
    17     8     9 2
    18     8    21 1
    19     9    10 1
    20     9    22 1
    21    10    11 1
    22    10    12 1
    23    13    23 1
@<TRIPOS>SUBSTRUCTURE
     1 FER         1 TEMP              0 ****  ****    0 ROOT
