@<TRIPOS>MOLECULE
FEV
   37    39     1     0     0
SMALL
bcc


@<TRIPOS>ATOM
      1 OAL          0.0000     0.0000     0.0000 o          1 FEV      -0.743167
      2 PAK          1.6110     0.0000     0.0000 p5         1 FEV       0.910500
      3 OAN          2.1470     0.0000     1.5180 o          1 FEV      -0.743167
      4 OAM          2.1040    -1.2090    -0.6970 o          1 FEV      -0.743167
      5 OAJ          2.1480     1.3140    -0.7610 os         1 FEV      -0.649000
      6 CAI          3.5330     1.5520    -1.0200 c3         1 FEV       0.151000
      7 CAA          3.6900     2.8640    -1.7420 c2         1 FEV      -0.013000
      8 CAB          2.5860     3.6290    -2.0520 c2         1 FEV      -0.088000
      9 NAC          2.7100     4.7810    -2.6840 n2         1 FEV      -0.072000
     10 CAD          3.8820     5.2560    -3.0520 c2         1 FEV      -0.179000
     11 CAH          3.9560     6.5790    -3.7710 c3         1 FEV      -0.041000
     12 CAE          5.0490     4.5560    -2.7840 c2         1 FEV       0.029000
     13 OAG          6.2540     5.0520    -3.1630 oh         1 FEV      -0.236000
     14 CAF          4.9620     3.3280    -2.1060 c3         1 FEV      -0.229000
     15 CAO          6.1700     2.5450    -1.7970 c2         1 FEV      -0.023000
     16 NAP          7.3420     2.9900    -2.1510 n2         1 FEV      -0.039000
     17 CAQ          8.4720     2.3180    -1.7720 c2         1 FEV       0.174000
     18 CAR          8.3610     1.0260    -1.0650 c2         1 FEV       0.367000
     19 OAU          8.3790    -0.1280    -1.7620 o          1 FEV      -0.597500
     20 OAT          8.2530     1.0020     0.1440 o          1 FEV      -0.597500
     21 CAS          9.6860     2.8340    -2.0440 c2         1 FEV      -0.676000
     22 CAV         10.9290     2.0380    -1.7410 DU         1 FEV      -0.063000
     23 CAW         11.7300     1.8350    -3.0280 c3         1 FEV      -0.080000
     24 H3           4.0740     1.5880    -0.0820 h1         1 FEV       0.064000
     25 H4           3.9280     0.7520    -1.6340 h1         1 FEV       0.064000
     26 H5           1.6000     3.2800    -1.7700 h4         1 FEV       0.173000
     27 H6           4.4500     7.3060    -3.1390 hc         1 FEV       0.029667
     28 H7           2.9540     6.9210    -4.0010 hc         1 FEV       0.029667
     29 H8           4.5170     6.4590    -4.6900 hc         1 FEV       0.029667
     30 H9           6.5180     5.7310    -2.5650 ho         1 FEV       0.194000
     31 H10          5.6910     2.5040    -2.7670 DU         1 FEV       0.216000
     32 H12         10.1220     2.8100    -1.0530 DU         1 FEV       0.248000
     33 H13         11.5340     2.5730    -1.0190 ha         1 FEV       0.035000
     34 H14         10.6490     1.0730    -1.3330 ha         1 FEV       0.035000
     35 H15         12.5570     1.1630    -2.8370 hc         1 FEV       0.020333
     36 H16         12.1110     2.7890    -3.3700 hc         1 FEV       0.020333
     37 H17         11.0880     1.4090    -3.7900 hc         1 FEV       0.020333
@<TRIPOS>BOND
     1     1     2 1   
     2     2     3 1   
     3     2     4 1   
     4     2     5 1   
     5     5     6 1   
     6     6     7 1   
     7     6    24 1   
     8     6    25 1   
     9     7     8 1   
    10     7    14 1   
    11     8     9 1   
    12     8    26 1   
    13     9    10 1   
    14    10    11 1   
    15    10    12 1   
    16    11    27 1   
    17    11    28 1   
    18    11    29 1   
    19    12    13 1   
    20    12    14 1   
    21    13    30 1   
    22    14    15 1   
    23    14    31 1   
    24    15    16 1   
    25    15    31 1   
    26    16    17 1   
    27    17    18 1   
    28    17    21 1   
    29    18    19 1   
    30    18    20 1   
    31    21    22 1   
    32    21    32 1   
    33    22    23 1   
    34    22    32 1   
    35    22    33 1   
    36    22    34 1   
    37    23    35 1   
    38    23    36 1   
    39    23    37 1   
@<TRIPOS>SUBSTRUCTURE
     1 FEV         1 TEMP              0 ****  ****    0 ROOT
