@<TRIPOS>MOLECULE
molecule
   37    37     1     0     0
SMALL
bcc


@<TRIPOS>ATOM
      1 OAL          0.0000     0.0000     0.0000 o          1 FEV      -0.910167
      2 PAK          1.6110     0.0000     0.0000 p5         1 FEV       1.181900
      3 OAN          2.1470     0.0000     1.5180 o          1 FEV      -0.910167
      4 OAM          2.1040    -1.2090    -0.6970 o          1 FEV      -0.910167
      5 OAJ          2.1480     1.3140    -0.7610 os         1 FEV      -0.590200
      6 CAI          3.5330     1.5520    -1.0200 c3         1 FEV       0.240700
      7 CAA          3.6900     2.8640    -1.7420 ca         1 FEV      -0.124600
      8 CAB          2.5860     3.6290    -2.0520 ca         1 FEV       0.418200
      9 NAC          2.7100     4.7810    -2.6840 nb         1 FEV      -0.716000
     10 CAD          3.8820     5.2560    -3.0520 ca         1 FEV       0.320600
     11 CAH          3.9560     6.5790    -3.7710 c3         1 FEV      -0.121400
     12 CAE          5.0490     4.5560    -2.7840 ca         1 FEV      -0.000200
     13 OAG          6.2540     5.0520    -3.1630 oh         1 FEV      -0.499100
     14 CAF          4.9620     3.3280    -2.1060 ca         1 FEV      -0.147900
     15 CAO          6.1700     2.5450    -1.7970 ce         1 FEV       0.503800
     16 NAP          7.3420     2.9900    -2.1510 nf         1 FEV      -0.616300
     17 CAQ          8.4720     2.3180    -1.7720 cf         1 FEV       0.094400
     18 CAR          8.3610     1.0260    -1.0650 c          1 FEV       0.848800
     19 OAU          8.3790    -0.1280    -1.7620 o          1 FEV      -0.830800
     20 OAT          8.2530     1.0020     0.1440 o          1 FEV      -0.830800
     21 CAS          9.6860     2.8340    -2.0440 c2         1 FEV      -0.225200
     22 CAV         10.9290     2.0380    -1.7410 c3         1 FEV      -0.032200
     23 CAW         11.7300     1.8350    -3.0280 c3         1 FEV      -0.082100
     24 H3           4.0740     1.5880    -0.0820 h1         1 FEV       0.055700
     25 H4           3.9280     0.7520    -1.6340 h1         1 FEV       0.055700
     26 H5           1.6000     3.2800    -1.7700 h4         1 FEV       0.074100
     27 H6           4.3110     6.4200    -4.7820 hc         1 FEV       0.025700
     28 H7           4.6390     7.2370    -3.2470 hc         1 FEV       0.025700
     29 H8           2.9710     7.0290    -3.8010 hc         1 FEV       0.025700
     30 H9           6.3830     4.8950    -4.0840 ho         1 FEV       0.397000
     31 H10          6.0920     1.6430    -1.2030 h4         1 FEV       0.043800
     32 H12          9.7660     3.7820    -2.5620 ha         1 FEV       0.096000
     33 H13         10.6490     1.0730    -1.3330 hc         1 FEV       0.049200
     34 H14         11.5340     2.5730    -1.0190 hc         1 FEV       0.049200
     35 H15         11.0660     1.5080    -3.8190 hc         1 FEV       0.013367
     36 H16         12.1970     2.7700    -3.3130 hc         1 FEV       0.013367
     37 H17         12.4930     1.0840    -2.8640 hc         1 FEV       0.013367
@<TRIPOS>BOND
     1    11    10 1
     2    10     9 ar
     3    10    12 ar
     4    13    12 1
     5     9     8 ar
     6    12    14 ar
     7    20    18 1
     8     8     7 ar
     9    18    19 1
    10    18    17 1
    11    14    15 1
    12    14     7 ar
    13    16    15 2
    14    16    17 1
    15     7     6 1
    16    17    21 2
    17     6     5 1
    18    21    22 1
    19     4     2 1
    20     5     2 1
    21    22    23 1
    22     2     3 1
    23     2     1 1
    24     6    24 1
    25     6    25 1
    26     8    26 1
    27    11    27 1
    28    11    28 1
    29    11    29 1
    30    13    30 1
    31    15    31 1
    32    21    32 1
    33    22    33 1
    34    22    34 1
    35    23    35 1
    36    23    36 1
    37    23    37 1
@<TRIPOS>SUBSTRUCTURE
     1 FEV         1 TEMP              0 ****  ****    0 ROOT
