@<TRIPOS>MOLECULE
FEX
   75    78     1     0     0
SMALL
bcc


@<TRIPOS>ATOM
      1 C26        -0.7150   -0.6070    4.4810 c3        1 FEX      0.125700
      2 O2          0.5360   -0.8160    3.8250 os        1 FEX     -0.441900
      3 C25         1.4830    0.1620    3.9730 c         1 FEX      0.628100
      4 O3          1.1980    1.1440    4.6610 o         1 FEX     -0.542000
      5 C24         2.7440   -0.1350    3.2260 c3        1 FEX     -0.124400
      6 C23         3.9610    0.2530    4.0470 c3        1 FEX     -0.034100
      7 C21         5.2130    0.0950    3.2570 ca        1 FEX     -0.079300
      8 C20         5.7000   -1.1840    2.9640 ca        1 FEX     -0.134000
      9 C19         6.8820   -1.3290    2.2440 ca        1 FEX     -0.117000
     10 C18         7.5850   -0.2120    1.8000 ca        1 FEX     -0.116000
     11 C17         7.1050    1.0840    2.0820 ca        1 FEX      0.055600
     12 C22         5.9140    1.2220    2.8260 ca        1 FEX     -0.136000
     13 N2          7.8040    2.2450    1.6410 n         1 FEX     -0.391000
     14 C15         7.0640    3.1760    0.8210 c3        1 FEX      0.142300
     15 C12         7.0450    2.9200   -0.6610 ca        1 FEX     -0.116300
     16 C13         8.1110    2.3290   -1.3440 ca        1 FEX     -0.121000
     17 C14         8.0550    2.1490   -2.7240 ca        1 FEX     -0.121500
     18 C9          6.9300    2.5600   -3.4520 cp        1 FEX     -0.017000
     19 C10         5.8610    3.1540   -2.7640 ca        1 FEX     -0.121500
     20 C11         5.9180    3.3290   -1.3860 ca        1 FEX     -0.121000
     21 C6          6.8700    2.3730   -4.8980 cp        1 FEX     -0.089000
     22 C7          8.0040    2.5730   -5.6960 ca        1 FEX     -0.081000
     23 C8          7.9550    2.3990   -7.0720 ca        1 FEX     -0.191000
     24 C1          6.7510    2.0180   -7.7150 ca        1 FEX      0.167600
     25 C4          5.6120    1.8050   -6.8980 ca        1 FEX     -0.191000
     26 C5          5.6780    1.9870   -5.5240 ca        1 FEX     -0.081000
     27 N1          6.6700    1.9270   -9.1170 nh        1 FEX     -0.655000
     28 C2          7.9080    1.8160   -9.8450 c3        1 FEX      0.185100
     29 C3          5.5420    1.2210   -9.6690 c3        1 FEX      0.185100
     30 C16         9.1910    2.3350    1.8070 c         1 FEX      0.662100
     31 O1          9.8100    1.4290    2.3960 o         1 FEX     -0.589100
     32 C27         9.9250    3.5800    1.3160 c3        1 FEX     -0.129700
     33 C28         9.8670    4.6540    2.3950 c3        1 FEX     -0.071900
     34 C29        10.6510    5.8800    1.9780 c3        1 FEX     -0.076900
     35 C30        12.0860    5.5300    1.6410 c3        1 FEX     -0.078400
     36 C31        12.1530    4.4490    0.5820 c3        1 FEX     -0.076900
     37 C32        11.3710    3.2200    0.9970 c3        1 FEX     -0.071900
     38 H261       -1.1980    0.3220    4.0940 h1        1 FEX      0.051033
     39 H262       -0.5560   -0.5240    5.5830 h1        1 FEX      0.051033
     40 H263       -1.3070   -1.5180    4.2200 h1        1 FEX      0.051033
     41 H241        2.7830   -1.2240    2.9590 hc        1 FEX      0.081700
     42 H242        2.7150    0.4530    2.2700 hc        1 FEX      0.081700
     43 H231        3.8450    1.3140    4.3980 hc        1 FEX      0.064700
     44 H232        4.0140   -0.3950    4.9630 hc        1 FEX      0.064700
     45 H20         5.1500   -2.0710    3.3110 ha        1 FEX      0.132000
     46 H19         7.2710   -2.3340    2.0230 ha        1 FEX      0.135000
     47 H18         8.5320   -0.3440    1.2540 ha        1 FEX      0.151000
     48 H22         5.5300    2.2220    3.0830 ha        1 FEX      0.136000
     49 H151        5.9940    3.1840    1.1880 h1        1 FEX      0.063200
     50 H152        7.4740    4.2160    0.9910 h1        1 FEX      0.063200
     51 H13         9.0070    1.9940   -0.7960 ha        1 FEX      0.133000
     52 H14         8.8980    1.6720   -3.2460 ha        1 FEX      0.136500
     53 H10         4.9730    3.4880   -3.3220 ha        1 FEX      0.136500
     54 H11         5.0690    3.7940   -0.8620 ha        1 FEX      0.133000
     55 H7          8.9520    2.8790   -5.2260 ha        1 FEX      0.132500
     56 H8          8.8730    2.5710   -7.6540 ha        1 FEX      0.134000
     57 H4          4.6540    1.4940   -7.3390 ha        1 FEX      0.134000
     58 H5          4.7760    1.8130   -4.9150 ha        1 FEX      0.132500
     59 H21         8.5530    0.9730   -9.4730 h1        1 FEX      0.038367
     60 H22A        7.6970    1.6520  -10.9340 h1        1 FEX      0.038367
     61 H23         8.4780    2.7780   -9.7400 h1        1 FEX      0.038367
     62 H31A        5.6500    1.1420  -10.7830 h1        1 FEX      0.038367
     63 H32A        4.6060    1.8020   -9.4500 h1        1 FEX      0.038367
     64 H33         5.4310    0.1860   -9.2450 h1        1 FEX      0.038367
     65 H28        10.2900    4.2390    3.3480 hc        1 FEX      0.053950
     66 H29        10.6330    6.6320    2.8090 hc        1 FEX      0.041950
     67 H30        12.6110    5.1770    2.5680 hc        1 FEX      0.042700
     68 H31        13.2220    4.1630    0.4040 hc        1 FEX      0.041950
     69 H32        11.8430    2.7480    1.8990 hc        1 FEX      0.053950
     70 HC1         9.4520    3.9720    0.3720 hc        1 FEX      0.069700
     71 HC2        11.3890    2.4600    0.1730 hc        1 FEX      0.053950
     72 HC3        11.7450    4.8470   -0.3840 hc        1 FEX      0.041950
     73 HC4        12.6210    6.4450    1.2780 hc        1 FEX      0.042700
     74 HC5        10.1620    6.3520    1.0850 hc        1 FEX      0.041950
     75 HC6         8.8000    4.9380    2.5930 hc        1 FEX      0.053950
@<TRIPOS>BOND
     1    1    2 1
     2    1   38 1
     3    1   39 1
     4    1   40 1
     5    2    3 1
     6    3    4 2
     7    3    5 1
     8    5    6 1
     9    5   41 1
    10    5   42 1
    11    6    7 1
    12    6   43 1
    13    6   44 1
    14    7    8 ar
    15    7   12 ar
    16    8    9 ar
    17    8   45 1
    18    9   10 ar
    19    9   46 1
    20   10   11 ar
    21   10   47 1
    22   11   12 ar
    23   11   13 1
    24   12   48 1
    25   13   14 1
    26   13   30 1
    27   14   15 1
    28   14   49 1
    29   14   50 1
    30   15   16 ar
    31   15   20 ar
    32   16   17 ar
    33   16   51 1
    34   17   18 ar
    35   17   52 1
    36   18   19 ar
    37   18   21 1
    38   19   20 ar
    39   19   53 1
    40   20   54 1
    41   21   22 ar
    42   21   26 ar
    43   22   23 ar
    44   22   55 1
    45   23   24 ar
    46   23   56 1
    47   24   25 ar
    48   24   27 1
    49   25   26 ar
    50   25   57 1
    51   26   58 1
    52   27   28 1
    53   27   29 1
    54   28   59 1
    55   28   60 1
    56   28   61 1
    57   29   62 1
    58   29   63 1
    59   29   64 1
    60   30   31 2
    61   30   32 1
    62   32   33 1
    63   32   37 1
    64   32   70 1
    65   33   34 1
    66   33   65 1
    67   33   75 1
    68   34   35 1
    69   34   66 1
    70   34   74 1
    71   35   36 1
    72   35   67 1
    73   35   73 1
    74   36   37 1
    75   36   68 1
    76   36   72 1
    77   37   69 1
    78   37   71 1
@<TRIPOS>SUBSTRUCTURE
     1 FEX         1 TEMP              0 ****  ****    0 ROOT
