@<TRIPOS>MOLECULE
FF0
   49    50     1     0     0
SMALL
bcc


@<TRIPOS>ATOM
      1 N11          0.0000     0.0000     0.0000 n7         1 FF0      -0.555200
      2 C12          1.4690     0.0000     0.0000 c3         1 FF0       0.141800
      3 C13          1.9790     0.0000     1.4420 c3         1 FF0      -0.026400
      4 C14          3.5100     0.0010     1.4420 c3         1 FF0       0.038900
      5 C16         -0.5270    -0.0010    -1.3710 c3         1 FF0       0.110800
      6 C17         -2.0560    -0.0010    -1.3300 c3         1 FF0       0.186100
      7 O18         -2.5170     1.2200    -0.7480 oh         1 FF0      -0.538800
      8 C19         -2.6050    -0.1270    -2.7520 c3         1 FF0      -0.093500
      9 N20         -2.1310    -1.3820    -3.3500 nz         1 FF0       0.045400
     10 C32         -4.1350    -0.1280    -2.7110 c3         1 FF0       0.034900
     11 C33         -4.9220    -1.3250    -4.7630 ca         1 FF0      -0.103000
     12 C34         -5.4180    -1.3260    -6.0530 ca         1 FF0      -0.074000
     13 C35         -5.6660    -0.1280    -6.6990 ca         1 FF0      -0.064000
     14 C36         -5.4180     1.0680    -6.0540 ca         1 FF0      -0.074000
     15 C37         -4.9220     1.0690    -4.7630 ca         1 FF0      -0.103000
     16 C38         -4.6750    -0.1290    -4.1180 ca         1 FF0      -0.174300
     17 C40          4.0120     0.0020     2.8620 ca         1 FF0      -0.101300
     18 C41          4.2440    -1.1950     3.5130 ca         1 FF0      -0.098500
     19 C42          4.7050    -1.1960     4.8170 ca         1 FF0      -0.094000
     20 C43          4.9360     0.0020     5.4680 ca         1 FF0      -0.094000
     21 C44          4.7050     1.1990     4.8160 ca         1 FF0      -0.094000
     22 C45          4.2480     1.1990     3.5110 ca         1 FF0      -0.098500
     23 H12          1.8300    -0.8840    -0.5110 h1         1 FF0       0.010700
     24 H12A         1.8300     0.8840    -0.5110 h1         1 FF0       0.010700
     25 H13          1.6170     0.8840     1.9530 hc         1 FF0       0.027200
     26 H13A         1.6190    -0.8850     1.9520 hc         1 FF0       0.027200
     27 H14          3.8700     0.8860     0.9310 hc         1 FF0       0.017700
     28 H14A         3.8710    -0.8830     0.9310 hc         1 FF0       0.017700
     29 H16         -0.1790    -0.8860    -1.8910 h1         1 FF0       0.008200
     30 H16A        -0.1790     0.8830    -1.8920 h1         1 FF0       0.008200
     31 H17         -2.4010    -0.8370    -0.7350 h1         1 FF0       0.012700
     32 HO18        -2.8770     1.0450     0.1050 ho         1 FF0       0.421000
     33 H19         -2.2600     0.7100    -3.3480 hx         1 FF0       0.107700
     34 HN20        -2.4340    -1.4330    -4.3030 hn         1 FF0       0.232133
     35 H32         -4.4810    -1.0120    -2.1900 hc         1 FF0       0.056700
     36 H32A        -4.4820     0.7570    -2.1920 hc         1 FF0       0.056700
     37 H35         -6.0550    -0.1280    -7.7100 ha         1 FF0       0.123000
     38 H36         -5.6120     2.0070    -6.5600 ha         1 FF0       0.121000
     39 H37         -4.7280     2.0070    -4.2580 ha         1 FF0       0.104500
     40 H41          4.0430    -2.1330     3.0100 ha         1 FF0       0.103500
     41 H42          4.9220    -2.1330     5.3140 ha         1 FF0       0.106500
     42 H43          5.2940     0.0020     6.4900 ha         1 FF0       0.108000
     43 H44          4.8560     2.1370     5.3360 ha         1 FF0       0.106500
     44 H45          4.2270     2.1440     2.9820 ha         1 FF0       0.103500
     45 H2          -0.3340    -0.8090     0.4860 hn         1 FF0       0.250800
     46 H1          -1.1310    -1.4110    -3.3170 hn         1 FF0       0.232133
     47 H33         -4.7280    -2.2630    -4.2570 ha         1 FF0       0.104500
     48 H203        -2.4720    -2.1560    -2.8160 hn         1 FF0       0.232133
     49 H34         -5.6120    -2.2640    -6.5590 ha         1 FF0       0.121000
@<TRIPOS>BOND
     1     1     2 1   
     2     1     5 1   
     3     1    45 1   
     4     2     3 1   
     5     2    23 1   
     6     2    24 1   
     7     3     4 1   
     8     3    25 1   
     9     3    26 1   
    10     4    17 1   
    11     4    27 1   
    12     4    28 1   
    13     5     6 1   
    14     5    29 1   
    15     5    30 1   
    16     6     7 1   
    17     6     8 1   
    18     6    31 1   
    19     7    32 1   
    20     8     9 1   
    21     8    10 1   
    22     8    33 1   
    23     9    34 1   
    24     9    46 1   
    25     9    48 1   
    26    10    16 1   
    27    10    35 1   
    28    10    36 1   
    29    11    12 ar  
    30    11    16 ar  
    31    11    47 1   
    32    12    13 ar  
    33    12    49 1   
    34    13    14 ar  
    35    13    37 1   
    36    14    15 ar  
    37    14    38 1   
    38    15    16 ar  
    39    15    39 1   
    40    17    18 ar  
    41    17    22 ar  
    42    18    19 ar  
    43    18    40 1   
    44    19    20 ar  
    45    19    41 1   
    46    20    21 ar  
    47    20    42 1   
    48    21    22 ar  
    49    21    43 1   
    50    22    44 1   
@<TRIPOS>SUBSTRUCTURE
     1 FF0         1 TEMP              0 ****  ****    0 ROOT
