@<TRIPOS>MOLECULE
FF1
   69    73     1     0     0
SMALL
bcc


@<TRIPOS>ATOM
      1 O2           0.0000     0.0000     0.0000 o          1 FF1      -0.635100
      2 C22          1.2180     0.0000     0.0000 c          1 FF1       0.614300
      3 N3           1.8910     0.0000     1.1680 ns         1 FF1      -0.026100
      4 C23          1.2000    -0.1570     2.3750 ca         1 FF1      -0.129400
      5 C29          1.6580     0.4720     3.5150 ca         1 FF1      -0.049000
      6 C28          0.9600     0.3090     4.7180 ca         1 FF1      -0.248900
      7 C27          1.1520     0.8110     6.0750 cc         1 FF1       0.434800
      8 N5           0.1900     0.3380     6.8140 nd         1 FF1      -0.630100
      9 N4          -0.6580    -0.4640     6.0440 na         1 FF1       0.412900
     10 C26         -0.1970    -0.4910     4.7510 ca         1 FF1      -0.190200
     11 C25         -0.6380    -1.1140     3.5860 ca         1 FF1      -0.100000
     12 C24          0.0480    -0.9440     2.4180 ca         1 FF1      -0.060000
     13 C21          1.9270    -0.0050    -1.2270 ce         1 FF1      -0.324400
     14 C19          2.4610     1.1280    -1.7280 c2         1 FF1      -0.069600
     15 C20          2.3030     2.4210    -0.9700 c3         1 FF1       0.044100
     16 N2           3.1450     1.1210    -2.9110 ns         1 FF1      -0.004100
     17 C18          3.3360     0.0230    -3.6530 c          1 FF1       0.594500
     18 O1           3.9580     0.1150    -4.6930 o          1 FF1      -0.718500
     19 N1           2.8610    -1.1830    -3.2820 ns         1 FF1      -0.187900
     20 C17          2.1160    -1.2840    -2.0170 c3         1 FF1       0.168200
     21 C13          2.8220    -2.2840    -1.1390 ca         1 FF1      -0.163300
     22 C12          2.0960    -3.2510    -0.4760 ca         1 FF1      -0.046000
     23 C14          4.1990    -2.2330    -1.0060 ca         1 FF1      -0.045000
     24 C15          4.8570    -3.1460    -0.2030 ca         1 FF1      -0.148000
     25 C16          4.1420    -4.1180     0.4720 ca         1 FF1       0.189900
     26 F            4.7860    -5.0100     1.2560 f          1 FF1      -0.104900
     27 C11          2.7520    -4.1790     0.3370 ca         1 FF1      -0.185600
     28 C10          1.9800    -5.2130     1.0540 c          1 FF1       0.593700
     29 O            2.5400    -5.9550     1.8370 o          1 FF1      -0.625100
     30 N            0.6550    -5.3350     0.8390 ns         1 FF1      -0.203900
     31 C9          -0.1300    -6.2870     1.6290 c3         1 FF1       0.048000
     32 C8          -1.5680    -6.3170     1.1090 c3         1 FF1       0.002900
     33 C7          -2.4050    -7.2040     1.9950 ca         1 FF1      -0.090300
     34 C1          -2.4340    -8.5680     1.7790 ca         1 FF1      -0.075800
     35 C           -1.6280    -9.1710     0.6570 c3         1 FF1       0.055700
     36 C5          -3.1390    -6.6520     3.0280 ca         1 FF1      -0.075800
     37 C6          -3.1030    -5.1640     3.2670 c3         1 FF1       0.055700
     38 C4          -3.9070    -7.4640     3.8410 ca         1 FF1      -0.104000
     39 C3          -3.9390    -8.8290     3.6220 ca         1 FF1      -0.091000
     40 C2          -3.2000    -9.3820     2.5920 ca         1 FF1      -0.104000
     41 H1           2.8850     0.1230     1.1720 hn         1 FF1       0.169500
     42 H2           2.6190     0.9720     3.5100 ha         1 FF1       0.104000
     43 H3           1.9520     1.4600     6.4090 h4         1 FF1       0.013800
     44 H5          -1.5300    -1.7270     3.6050 ha         1 FF1       0.105000
     45 H6          -0.3070    -1.4250     1.5140 ha         1 FF1       0.133000
     46 H7           2.9510     2.4120    -0.1020 hc         1 FF1       0.024700
     47 H8           2.5710     3.2510    -1.6120 hc         1 FF1       0.024700
     48 H9           1.2730     2.5290    -0.6510 hc         1 FF1       0.024700
     49 H10          3.5250     1.9860    -3.2420 hn         1 FF1       0.187500
     50 H11          3.0110    -1.9900    -3.8540 hn         1 FF1       0.213500
     51 H12          1.1320    -1.6740    -2.2470 h1         1 FF1       0.035700
     52 H13          1.0200    -3.2920    -0.5860 ha         1 FF1       0.116000
     53 H14          4.7640    -1.4730    -1.5330 ha         1 FF1       0.113000
     54 H15          5.9350    -3.1000    -0.1030 ha         1 FF1       0.127000
     55 H16          0.2180    -4.8120     0.1070 hn         1 FF1       0.177500
     56 H17         -0.1280    -5.9820     2.6690 h1         1 FF1       0.034200
     57 H18          0.3060    -7.2750     1.5420 h1         1 FF1       0.034200
     58 H19         -1.5780    -6.7050     0.0970 hc         1 FF1       0.026700
     59 H20         -1.9750    -5.3130     1.1140 hc         1 FF1       0.026700
     60 H21         -1.9590   -10.1870     0.4800 hc         1 FF1       0.010533
     61 H22         -1.7660    -8.5840    -0.2430 hc         1 FF1       0.010533
     62 H23         -0.5790    -9.1750     0.9270 hc         1 FF1       0.010533
     63 H24         -2.1090    -4.8730     3.5820 hc         1 FF1       0.010533
     64 H25         -3.8170    -4.9050     4.0400 hc         1 FF1       0.010533
     65 H26         -3.3590    -4.6450     2.3520 hc         1 FF1       0.010533
     66 H27         -4.4850    -7.0320     4.6490 ha         1 FF1       0.107000
     67 H28         -4.5410    -9.4660     4.2590 ha         1 FF1       0.103000
     68 H29         -3.2230   -10.4510     2.4210 ha         1 FF1       0.107000
     69 H4          -1.4710    -0.9410     6.3810 hn         1 FF1       0.153700
@<TRIPOS>BOND
     1     1     2 2   
     2     2     3 1   
     3     2    13 1   
     4     3     4 1   
     5     3    41 1   
     6     4     5 ar  
     7     4    12 ar  
     8     5     6 ar  
     9     5    42 1   
    10     6     7 1   
    11     6    10 ar  
    12     7     8 2   
    13     7    43 1   
    14     8     9 1   
    15     9    10 1   
    16     9    69 1   
    17    10    11 ar  
    18    11    12 ar  
    19    11    44 1   
    20    12    45 1   
    21    13    14 2   
    22    13    20 1   
    23    14    15 1   
    24    14    16 1   
    25    15    46 1   
    26    15    47 1   
    27    15    48 1   
    28    16    17 1   
    29    16    49 1   
    30    17    18 2   
    31    17    19 1   
    32    19    20 1   
    33    19    50 1   
    34    20    21 1   
    35    20    51 1   
    36    21    22 ar  
    37    21    23 ar  
    38    22    27 ar  
    39    22    52 1   
    40    23    24 ar  
    41    23    53 1   
    42    24    25 ar  
    43    24    54 1   
    44    25    26 1   
    45    25    27 ar  
    46    27    28 1   
    47    28    29 2   
    48    28    30 1   
    49    30    31 1   
    50    30    55 1   
    51    31    32 1   
    52    31    56 1   
    53    31    57 1   
    54    32    33 1   
    55    32    58 1   
    56    32    59 1   
    57    33    34 ar  
    58    33    36 ar  
    59    34    35 1   
    60    34    40 ar  
    61    35    60 1   
    62    35    61 1   
    63    35    62 1   
    64    36    37 1   
    65    36    38 ar  
    66    37    63 1   
    67    37    64 1   
    68    37    65 1   
    69    38    39 ar  
    70    38    66 1   
    71    39    40 ar  
    72    39    67 1   
    73    40    68 1   
@<TRIPOS>SUBSTRUCTURE
     1 FF1         1 TEMP              0 ****  ****    0 ROOT
