@<TRIPOS>MOLECULE
molecule
   69    73     1     0     0
SMALL
bcc


@<TRIPOS>ATOM
      1 O2           0.0000     0.0000     0.0000 o          1 FF1      -0.590100
      2 C22          1.2180     0.0000     0.0000 c          1 FF1       0.701300
      3 N3           1.8910     0.0000     1.1680 ns         1 FF1      -0.468100
      4 C23          1.2000    -0.1570     2.3750 ca         1 FF1       0.017600
      5 C29          1.6580     0.4720     3.5150 ca         1 FF1      -0.093000
      6 C28          0.9600     0.3090     4.7180 ca         1 FF1      -0.236900
      7 C27          1.1520     0.8110     6.0750 cc         1 FF1       0.375800
      8 N5           0.1900     0.3380     6.8140 nd         1 FF1      -0.495100
      9 N4          -0.6580    -0.4640     6.0440 na         1 FF1      -0.054100
     10 C26         -0.1970    -0.4910     4.7510 ca         1 FF1      -0.029200
     11 C25         -0.6380    -1.1140     3.5860 ca         1 FF1      -0.140000
     12 C24          0.0480    -0.9440     2.4180 ca         1 FF1      -0.080000
     13 C21          1.9270    -0.0050    -1.2270 ce         1 FF1      -0.309400
     14 C19          2.4610     1.1280    -1.7280 c2         1 FF1       0.091400
     15 C20          2.3030     2.4210    -0.9700 c3         1 FF1      -0.070900
     16 N2           3.1450     1.1210    -2.9110 ns         1 FF1      -0.463100
     17 C18          3.3360     0.0230    -3.6530 c          1 FF1       0.816500
     18 O1           3.9580     0.1150    -4.6930 o          1 FF1      -0.670500
     19 N1           2.8610    -1.1830    -3.2820 ns         1 FF1      -0.578900
     20 C17          2.1160    -1.2840    -2.0170 c3         1 FF1       0.230200
     21 C13          2.8220    -2.2840    -1.1390 ca         1 FF1      -0.150300
     22 C12          2.0960    -3.2510    -0.4760 ca         1 FF1      -0.069000
     23 C14          4.1990    -2.2330    -1.0060 ca         1 FF1      -0.067000
     24 C15          4.8570    -3.1460    -0.2030 ca         1 FF1      -0.184000
     25 C16          4.1420    -4.1180     0.4720 ca         1 FF1       0.202900
     26 F            4.7860    -5.0100     1.2560 f          1 FF1      -0.104900
     27 C11          2.7520    -4.1790     0.3370 ca         1 FF1      -0.187600
     28 C10          1.9800    -5.2130     1.0540 c          1 FF1       0.672700
     29 O            2.5400    -5.9550     1.8370 o          1 FF1      -0.586100
     30 N            0.6550    -5.3350     0.8390 ns         1 FF1      -0.587900
     31 C9          -0.1300    -6.2870     1.6290 c3         1 FF1       0.117000
     32 C8          -1.5680    -6.3170     1.1090 c3         1 FF1      -0.056100
     33 C7          -2.4050    -7.2040     1.9950 ca         1 FF1      -0.086300
     34 C1          -2.4340    -8.5680     1.7790 ca         1 FF1      -0.071300
     35 C           -1.6280    -9.1710     0.6570 c3         1 FF1      -0.050300
     36 C5          -3.1390    -6.6520     3.0280 ca         1 FF1      -0.071300
     37 C6          -3.1030    -5.1640     3.2670 c3         1 FF1      -0.050300
     38 C4          -3.9070    -7.4640     3.8410 ca         1 FF1      -0.129500
     39 C3          -3.9390    -8.8290     3.6220 ca         1 FF1      -0.120000
     40 C2          -3.2000    -9.3820     2.5920 ca         1 FF1      -0.129500
     41 H1           2.8850     0.1230     1.1720 hn         1 FF1       0.326500
     42 H2           2.6190     0.9720     3.5100 ha         1 FF1       0.131000
     43 H3           1.9520     1.4600     6.4090 h4         1 FF1       0.062800
     44 H5          -1.5300    -1.7270     3.6050 ha         1 FF1       0.134000
     45 H6          -0.3070    -1.4250     1.5140 ha         1 FF1       0.158000
     46 H7           2.9510     2.4120    -0.1020 hc         1 FF1       0.064033
     47 H8           2.5710     3.2510    -1.6120 hc         1 FF1       0.064033
     48 H9           1.2730     2.5290    -0.6510 hc         1 FF1       0.064033
     49 H10          3.5250     1.9860    -3.2420 hn         1 FF1       0.352500
     50 H11          3.0110    -1.9900    -3.8540 hn         1 FF1       0.364500
     51 H12          1.1320    -1.6740    -2.2470 h1         1 FF1       0.067700
     52 H13          1.0200    -3.2920    -0.5860 ha         1 FF1       0.139000
     53 H14          4.7640    -1.4730    -1.5330 ha         1 FF1       0.145000
     54 H15          5.9350    -3.1000    -0.1030 ha         1 FF1       0.154000
     55 H16          0.2180    -4.8120     0.1070 hn         1 FF1       0.311500
     56 H17         -0.1280    -5.9820     2.6690 h1         1 FF1       0.060200
     57 H18          0.3060    -7.2750     1.5420 h1         1 FF1       0.060200
     58 H19         -1.5780    -6.7050     0.0970 hc         1 FF1       0.052700
     59 H20         -1.9750    -5.3130     1.1140 hc         1 FF1       0.052700
     60 H21         -1.9590   -10.1870     0.4800 hc         1 FF1       0.044367
     61 H22         -1.7660    -8.5840    -0.2430 hc         1 FF1       0.044367
     62 H23         -0.5790    -9.1750     0.9270 hc         1 FF1       0.044367
     63 H24         -2.1090    -4.8730     3.5820 hc         1 FF1       0.044367
     64 H25         -3.8170    -4.9050     4.0400 hc         1 FF1       0.044367
     65 H26         -3.3590    -4.6450     2.3520 hc         1 FF1       0.044367
     66 H27         -4.4850    -7.0320     4.6490 ha         1 FF1       0.131500
     67 H28         -4.5410    -9.4660     4.2590 ha         1 FF1       0.130000
     68 H29         -3.2230   -10.4510     2.4210 ha         1 FF1       0.131500
     69 H4          -1.4710    -0.9410     6.3810 hn         1 FF1       0.332700
@<TRIPOS>BOND
     1    24    23 ar
     2    24    25 ar
     3    23    21 ar
     4    35    34 1
     5    26    25 1
     6    40    34 ar
     7    40    39 ar
     8    25    27 ar
     9     7     8 2
    10     7     6 1
    11     1     2 2
    12    21    20 1
    13    21    22 ar
    14     8     9 1
    15    34    33 ar
    16    20    19 1
    17    20    13 1
    18    39    38 ar
    19     5     6 ar
    20     5     4 ar
    21     6    10 ar
    22    27    22 ar
    23    27    28 1
    24     2    13 1
    25     2     3 1
    26    19    17 1
    27     9    10 1
    28    13    14 2
    29    33    32 1
    30    33    36 ar
    31     4     3 1
    32     4    12 ar
    33    10    11 ar
    34    28    30 1
    35    28    29 2
    36    38    36 ar
    37    30    31 1
    38    32    31 1
    39    36    37 1
    40    17    18 2
    41    17    16 1
    42    11    12 ar
    43    14    16 1
    44    14    15 1
    45     3    41 1
    46     5    42 1
    47     7    43 1
    48    11    44 1
    49    12    45 1
    50    15    46 1
    51    15    47 1
    52    15    48 1
    53    16    49 1
    54    19    50 1
    55    20    51 1
    56    22    52 1
    57    23    53 1
    58    24    54 1
    59    30    55 1
    60    31    56 1
    61    31    57 1
    62    32    58 1
    63    32    59 1
    64    35    60 1
    65    35    61 1
    66    35    62 1
    67    37    63 1
    68    37    64 1
    69    37    65 1
    70    38    66 1
    71    39    67 1
    72    40    68 1
    73     9    69 1
@<TRIPOS>SUBSTRUCTURE
     1 FF1         1 TEMP              0 ****  ****    0 ROOT
