@<TRIPOS>MOLECULE
FF2
   20    21     1     0     0
SMALL
bcc


@<TRIPOS>ATOM
      1 O01          0.0000     0.0000     0.0000 o          1 FF2      -0.611100
      2 C02          1.2170     0.0000     0.0000 c          1 FF2       0.626300
      3 N03          1.8900     0.0000     1.1680 ns         1 FF2      -0.048400
      4 O04          1.1820     0.0010     2.3940 oh         1 FF2      -0.436100
      5 C05          1.9530    -0.0070    -1.2720 cc         1 FF2      -0.080600
      6 C06          1.3810    -0.0140    -2.4810 cd         1 FF2      -0.004200
      7 C07          2.2670    -0.0200    -3.5700 ca         1 FF2      -0.095800
      8 C08          1.9710    -0.0260    -4.9550 ca         1 FF2       0.012400
      9 Cl1          0.3180    -0.0290    -5.4840 cl         1 FF2      -0.006400
     10 C10          2.9740    -0.0310    -5.8750 ca         1 FF2      -0.106000
     11 C11          4.3040    -0.0280    -5.4730 ca         1 FF2      -0.070000
     12 C12          4.6220    -0.0220    -4.1360 ca         1 FF2      -0.064000
     13 C13          3.6090    -0.0180    -3.1710 ca         1 FF2       0.052900
     14 S14          3.7010    -0.0020    -1.4140 ss         1 FF2      -0.214500
     15 H1           2.8910    -0.0010     1.1690 hn         1 FF2       0.163500
     16 H2           1.7950     0.0030     3.1110 ho         1 FF2       0.394000
     17 H3           0.3050    -0.0160    -2.6110 ha         1 FF2       0.147000
     18 H4           2.7330    -0.0350    -6.9310 ha         1 FF2       0.119000
     19 H5           5.0920    -0.0320    -6.2150 ha         1 FF2       0.110000
     20 H6           5.6610    -0.0200    -3.8280 ha         1 FF2       0.114000
@<TRIPOS>BOND
     1     1     2 2   
     2     2     3 1   
     3     2     5 1   
     4     3     4 1   
     5     3    15 1   
     6     4    16 1   
     7     5     6 2   
     8     5    14 1   
     9     6     7 1   
    10     6    17 1   
    11     7     8 ar  
    12     7    13 ar  
    13     8     9 1   
    14     8    10 ar  
    15    10    11 ar  
    16    10    18 1   
    17    11    12 ar  
    18    11    19 1   
    19    12    13 ar  
    20    12    20 1   
    21    13    14 1   
@<TRIPOS>SUBSTRUCTURE
     1 FF2         1 TEMP              0 ****  ****    0 ROOT
