@<TRIPOS>MOLECULE
molecule
   20    21     1     0     0
SMALL
bcc


@<TRIPOS>ATOM
      1 O01          0.0000     0.0000     0.0000 o          1 FF2      -0.561100
      2 C02          1.2170     0.0000     0.0000 c          1 FF2       0.714300
      3 N03          1.8900     0.0000     1.1680 ns         1 FF2      -0.467400
      4 O04          1.1820     0.0010     2.3940 oh         1 FF2      -0.355100
      5 C05          1.9530    -0.0070    -1.2720 cc         1 FF2      -0.105600
      6 C06          1.3810    -0.0140    -2.4810 cd         1 FF2      -0.041200
      7 C07          2.2670    -0.0200    -3.5700 ca         1 FF2      -0.090800
      8 C08          1.9710    -0.0260    -4.9550 ca         1 FF2       0.074400
      9 Cl1          0.3180    -0.0290    -5.4840 cl         1 FF2      -0.092400
     10 C10          2.9740    -0.0310    -5.8750 ca         1 FF2      -0.128000
     11 C11          4.3040    -0.0280    -5.4730 ca         1 FF2      -0.098000
     12 C12          4.6220    -0.0220    -4.1360 ca         1 FF2      -0.102000
     13 C13          3.6090    -0.0180    -3.1710 ca         1 FF2       0.011900
     14 S14          3.7010    -0.0020    -1.4140 ss         1 FF2      -0.101500
     15 H1           2.8910    -0.0010     1.1690 hn         1 FF2       0.322500
     16 H2           1.7950     0.0030     3.1110 ho         1 FF2       0.401000
     17 H3           0.3050    -0.0160    -2.6110 ha         1 FF2       0.184000
     18 H4           2.7330    -0.0350    -6.9310 ha         1 FF2       0.150000
     19 H5           5.0920    -0.0320    -6.2150 ha         1 FF2       0.144000
     20 H6           5.6610    -0.0200    -3.8280 ha         1 FF2       0.141000
@<TRIPOS>BOND
     1    12    11 ar
     2    12    13 ar
     3    11    10 ar
     4    14    13 1
     5    14     5 1
     6    13     7 ar
     7    10     8 ar
     8     3     4 1
     9     3     2 1
    10     7     8 ar
    11     7     6 1
    12     5     2 1
    13     5     6 2
    14     8     9 1
    15     2     1 2
    16     3    15 1
    17     4    16 1
    18     6    17 1
    19    10    18 1
    20    11    19 1
    21    12    20 1
@<TRIPOS>SUBSTRUCTURE
     1 FF2         1 TEMP              0 ****  ****    0 ROOT
