@<TRIPOS>MOLECULE
molecule
   18    18     1     0     0
SMALL
bcc


@<TRIPOS>ATOM
      1 N4           0.0000     0.0000     0.0000 nv         1 FF3      -0.919500
      2 C1           1.3870     0.0000     0.0000 cc         1 FF3       0.774300
      3 S1           2.5400     0.0000     1.3710 ss         1 FF3      -0.253800
      4 N1           2.2410    -0.0050    -1.0150 nd         1 FF3      -0.414000
      5 N2           3.4890    -0.0010    -0.8350 nd         1 FF3      -0.264000
      6 C2           4.0240    -0.0010     0.3690 cc         1 FF3       0.213700
      7 C3           5.4730    -0.0000     0.7850 c3         1 FF3       0.372100
      8 F1           5.7390     1.1420     1.5470 f          1 FF3      -0.185300
      9 F2           5.7390    -1.1430     1.5490 f          1 FF3      -0.185300
     10 S2           6.5250    -0.0020    -0.6920 s6         1 FF3       1.141900
     11 O1           6.4660     1.2420    -1.3770 o          1 FF3      -0.458800
     12 O2           6.4660    -1.2450    -1.3770 o          1 FF3      -0.458800
     13 N3           8.0580    -0.0010    -0.0630 nz         1 FF3      -0.815500
     14 HN41        -0.5000    -0.0020    -0.8670 hn         1 FF3       0.478300
     15 HN42        -0.5000     0.0020     0.8670 hn         1 FF3       0.478300
     16 HN31         8.7250    -0.0010    -0.8090 hn         1 FF3       0.499133
     17 HN32         8.1880    -0.8180     0.5010 hn         1 FF3       0.499133
     18 H33          8.1870     0.8160     0.5000 hn         1 FF3       0.499133
@<TRIPOS>BOND
     1     1     2 1
     2     1    14 1
     3     1    15 1
     4     2     3 1
     5     2     4 2
     6     3     6 1
     7     4     5 1
     8     5     6 2
     9     6     7 1
    10     7     8 1
    11     7     9 1
    12     7    10 1
    13    10    11 2
    14    10    12 2
    15    10    13 1
    16    13    16 1
    17    13    17 1
    18    18    13 1
@<TRIPOS>SUBSTRUCTURE
     1 FF3         1 TEMP              0 ****  ****    0 ROOT
