@<TRIPOS>MOLECULE
molecule
   43    44     1     0     0
SMALL
bcc


@<TRIPOS>ATOM
      1 C4           0.0000     0.0000     0.0000 cc         1 FF4       0.166500
      2 N4          -0.6920    -0.0010    -1.1890 nz         1 FF4      -0.622600
      3 C5           1.4100     0.0000     0.0000 cc         1 FF4      -0.290600
      4 C6           2.0650     0.0000     1.1840 cd         1 FF4      -0.085400
      5 N3          -0.6560     0.0050     1.1530 nd         1 FF4      -0.855100
      6 C2           0.0030     0.0060     2.3100 c          1 FF4       0.854900
      7 O2          -0.6220     0.0100     3.3580 o          1 FF4      -0.706500
      8 N1           1.3490     0.0000     2.3430 n          1 FF4      -0.388000
      9 C1'          2.0460     0.0000     3.6320 c3         1 FF4       0.319500
     10 C2'          1.7070     1.2800     4.4270 c3         1 FF4      -0.146400
     11 C3'          1.6240     0.8000     5.8930 c3         1 FF4       0.106100
     12 O3'          2.6060     1.4610     6.6930 oh         1 FF4      -0.617800
     13 O4'          1.5740    -1.0850     4.4590 os         1 FF4      -0.354600
     14 C4'          1.9240    -0.7130     5.8100 c3         1 FF4       0.132100
     15 C5'          1.0630    -1.4820     6.8140 c3         1 FF4       0.240400
     16 O5'          1.4360    -2.8620     6.8040 os         1 FF4      -0.603200
     17 PA           0.7350    -3.9670     7.7410 p5         1 FF4       1.434800
     18 O1A         -0.8100    -4.1290     7.3160 o          1 FF4      -0.834000
     19 O2A          0.8160    -3.5390     9.1550 o          1 FF4      -0.834000
     20 O3A          1.4900    -5.3790     7.5640 os         1 FF4      -0.710800
     21 PB           1.4980    -6.7550     8.3980 p5         1 FF4       1.206600
     22 O1B          2.0110    -6.4710     9.8970 o          1 FF4      -0.641500
     23 O2B          0.1280    -7.3130     8.4430 o          1 FF4      -0.641500
     24 C3B          2.6130    -7.9500     7.5890 c3         1 FF4       0.028200
     25 F4B          3.9090    -7.4220     7.5460 f          1 FF4      -0.221300
     26 PG           2.6220    -9.5080     8.5340 p5         1 FF4       0.929700
     27 O1G          3.1360    -9.2240    10.0330 o          1 FF4      -0.636500
     28 O2G          3.6080   -10.5630     7.8200 o          1 FF4      -0.636500
     29 O3G          1.2520   -10.0650     8.5800 o          1 FF4      -0.636500
     30 H1          -1.6750    -0.0070    -1.0030 hn         1 FF4       0.358800
     31 H2          -0.4560     0.8180    -1.7130 hn         1 FF4       0.358800
     32 H3           1.9600    -0.0000    -0.9330 ha         1 FF4       0.066000
     33 H4           3.1480    -0.0020     1.2110 h4         1 FF4       0.111000
     34 H5           3.1170    -0.0780     3.4870 h2         1 FF4       0.028700
     35 H6           2.4950     2.0150     4.3130 hc         1 FF4       0.054200
     36 H7           0.7540     1.6820     4.1060 hc         1 FF4       0.054200
     37 H8           0.6290     0.9660     6.2880 h1         1 FF4       0.056700
     38 H9           2.1910     2.1320     7.2100 ho         1 FF4       0.382000
     39 H10          2.9760    -0.8970     5.9890 h1         1 FF4       0.052700
     40 H11          1.2130    -1.0750     7.8060 h1         1 FF4       0.037700
     41 H12          0.0190    -1.3890     6.5400 h1         1 FF4       0.037700
     42 H15          2.2680    -8.1410     6.5810 h1         1 FF4       0.086700
     43 H43         -0.4480    -0.8160    -1.7170 hn         1 FF4       0.358800
@<TRIPOS>BOND
     1     7     6 2
     2     6     5 1
     3     6     8 1
     4    10     9 1
     5    10    11 1
     6     5     1 2
     7     9     8 1
     8     9    13 1
     9     8     4 1
    10    12    11 1
    11     1     2 1
    12     1     3 1
    13    11    14 1
    14    13    14 1
    15    14    15 1
    16     4     3 2
    17    23    21 1
    18    15    16 1
    19    21    20 1
    20    21    22 1
    21    21    24 1
    22    16    17 1
    23    20    17 1
    24    24    25 1
    25    24    26 1
    26    17    19 1
    27    17    18 1
    28    29    26 1
    29    26    28 1
    30    26    27 1
    31     2    30 1
    32     2    31 1
    33     3    32 1
    34     4    33 1
    35     9    34 1
    36    10    35 1
    37    10    36 1
    38    11    37 1
    39    12    38 1
    40    14    39 1
    41    15    40 1
    42    15    41 1
    43    24    42 1
    44    43     2 1
@<TRIPOS>SUBSTRUCTURE
     1 FF4         1 TEMP              0 ****  ****    0 ROOT
