@<TRIPOS>MOLECULE
molecule
   43    44     1     0     0
SMALL
bcc


@<TRIPOS>ATOM
      1 C4           0.0000     0.0000     0.0000 cc         1 FF7       0.177500
      2 N4          -0.6910     0.0010    -1.1900 nz         1 FF7      -0.626600
      3 C5           1.4100     0.0000     0.0000 cc         1 FF7      -0.296600
      4 C6           2.0660     0.0000     1.1850 cd         1 FF7      -0.079400
      5 N3          -0.6570     0.0060     1.1530 nd         1 FF7      -0.848100
      6 C2           0.0020     0.0050     2.3100 c          1 FF7       0.854900
      7 O2          -0.6240     0.0090     3.3570 o          1 FF7      -0.698500
      8 N1           1.3480    -0.0010     2.3430 n          1 FF7      -0.385000
      9 C1'          2.0450    -0.0020     3.6330 c3         1 FF7       0.318500
     10 C2'          1.7040     1.2780     4.4290 c3         1 FF7      -0.146400
     11 C3'          1.6210     0.7970     5.8950 c3         1 FF7       0.106100
     12 O3'          2.6030     1.4590     6.6950 oh         1 FF7      -0.617800
     13 O4'          1.5710    -1.0880     4.4590 os         1 FF7      -0.352600
     14 C4'          1.9200    -0.7160     5.8110 c3         1 FF7       0.132100
     15 C5'          1.0590    -1.4860     6.8130 c3         1 FF7       0.240400
     16 O5'          1.4320    -2.8650     6.8030 os         1 FF7      -0.602200
     17 PA           0.7300    -3.9710     7.7380 p5         1 FF7       1.433800
     18 O1A         -0.8150    -4.1320     7.3130 o          1 FF7      -0.835500
     19 O2A          0.8100    -3.5440     9.1540 o          1 FF7      -0.835500
     20 O3A          1.4850    -5.3820     7.5610 os         1 FF7      -0.713800
     21 PB           1.4920    -6.7590     8.3950 p5         1 FF7       1.235600
     22 O1B          2.0060    -6.4760     9.8950 o          1 FF7      -0.659500
     23 O2B          0.1220    -7.3170     8.4400 o          1 FF7      -0.659500
     24 C3B          2.6080    -7.9520     7.5860 c3         1 FF7      -0.121700
     25 PG           2.6170    -9.5120     8.5310 p5         1 FF7       0.975700
     26 O2G          3.6020   -10.5660     7.8170 o          1 FF7      -0.628833
     27 O1G          3.1300    -9.2290    10.0310 o          1 FF7      -0.628833
     28 O3G          1.2470   -10.0690     8.5750 o          1 FF7      -0.628833
     29 Cl           2.0340    -8.2700     5.9070 cl         1 FF7      -0.162400
     30 H1          -0.4570     0.8220    -1.7120 hn         1 FF7       0.362133
     31 H2          -0.4450    -0.8120    -1.7190 hn         1 FF7       0.362133
     32 H3           1.9600     0.0010    -0.9330 ha         1 FF7       0.068000
     33 H4           3.1490    -0.0020     1.2120 h4         1 FF7       0.113000
     34 H5           3.1150    -0.0800     3.4890 h2         1 FF7       0.029700
     35 H6           2.4910     2.0140     4.3170 hc         1 FF7       0.053700
     36 H7           0.7510     1.6800     4.1080 hc         1 FF7       0.053700
     37 H8           0.6260     0.9630     6.2900 h1         1 FF7       0.056700
     38 H9           2.1870     2.1280     7.2130 ho         1 FF7       0.382000
     39 H10          2.9720    -0.9000     5.9900 h1         1 FF7       0.051700
     40 H11          0.0150    -1.3930     6.5380 h1         1 FF7       0.037700
     41 H12          1.2090    -1.0790     7.8050 h1         1 FF7       0.037700
     42 H15          3.6110    -7.5440     7.5540 h1         1 FF7       0.080700
     43 H43         -1.6750    -0.0060    -1.0040 hn         1 FF7       0.362133
@<TRIPOS>BOND
     1     7     6 2
     2     6     5 1
     3     6     8 1
     4    10     9 1
     5    10    11 1
     6     5     1 2
     7     9     8 1
     8     9    13 1
     9     8     4 1
    10    12    11 1
    11     1     2 1
    12     1     3 1
    13    11    14 1
    14    13    14 1
    15    14    15 1
    16     4     3 2
    17    22    21 1
    18    15    16 1
    19    16    17 1
    20    20    21 1
    21    20    17 1
    22    21    23 1
    23    21    24 1
    24    29    24 1
    25    17    19 1
    26    17    18 1
    27    24    25 1
    28    28    25 1
    29    25    26 1
    30    25    27 1
    31     2    30 1
    32     2    31 1
    33     3    32 1
    34     4    33 1
    35     9    34 1
    36    10    35 1
    37    10    36 1
    38    11    37 1
    39    12    38 1
    40    14    39 1
    41    15    40 1
    42    15    41 1
    43    24    42 1
    44    43     2 1
@<TRIPOS>SUBSTRUCTURE
     1 FF7         1 TEMP              0 ****  ****    0 ROOT
