@<TRIPOS>MOLECULE
molecule
   53    54     1     0     0
SMALL
bcc


@<TRIPOS>ATOM
      1 C01          0.0000     0.0000     0.0000 ca         1 FF8       0.124900
      2 C02          1.3820     0.0000     0.0000 ca         1 FF8      -0.178000
      3 C03          2.0750     0.0000     1.1970 ca         1 FF8       0.018700
      4 C04          1.3920    -0.0010     2.3990 ca         1 FF8      -0.100000
      5 C05          0.0110    -0.0000     2.4120 ca         1 FF8      -0.100000
      6 C06         -0.6940     0.0010     1.2110 cp         1 FF8      -0.123000
      7 C07         -2.8730    -0.9210     1.9960 ca         1 FF8      -0.120000
      8 C08         -2.1780     0.0010     1.2180 cp         1 FF8       0.007000
      9 C09         -4.2580    -0.9150     2.0000 ca         1 FF8       0.111100
     10 C10         -4.9500     0.0100     1.2290 ca         1 FF8      -0.140000
     11 C11         -4.2610     0.9250     0.4570 ca         1 FF8      -0.126000
     12 C12         -2.8800     0.9270     0.4480 ca         1 FF8      -0.107000
     13 C13          3.5820    -0.0010     1.1910 c3         1 FF8      -0.146400
     14 C14          4.0880     1.2290     1.9000 c          1 FF8       0.895600
     15 O15          5.4080     1.4410     2.0170 o          1 FF8      -0.838300
     16 C16          4.0950    -1.2510     1.9100 c3         1 FF8      -0.060100
     17 O17          3.3050     2.0250     2.3620 o          1 FF8      -0.838300
     18 F18         -0.6780     0.0060    -1.1690 f          1 FF8      -0.161900
     19 O19         -4.9400    -1.8140     2.7580 os         1 FF8      -0.354200
     20 C20         -4.8860    -1.6540     4.0930 c          1 FF8       0.741100
     21 O21         -4.3400    -0.6760     4.5670 o          1 FF8      -0.585000
     22 N22         -5.4380    -2.5770     4.9070 ns         1 FF8      -0.579900
     23 C23         -5.3800    -2.4020     6.3600 c3         1 FF8       0.132000
     24 C24         -6.0750    -3.5810     7.0430 c3         1 FF8      -0.102400
     25 C25         -6.0130    -3.3980     8.5620 c3         1 FF8      -0.078400
     26 C26         -6.7090    -4.5770     9.2450 c3         1 FF8      -0.081400
     27 C27         -6.6480    -4.3950    10.7630 c3         1 FF8      -0.084400
     28 C28         -7.3430    -5.5740    11.4470 c3         1 FF8      -0.092100
     29 H1           1.9230    -0.0010    -0.9390 ha         1 FF8       0.137000
     30 H2           1.9410    -0.0030     3.3330 ha         1 FF8       0.153000
     31 H3          -0.5210     0.0590     3.3530 ha         1 FF8       0.132000
     32 H5          -6.0330     0.0140     1.2330 ha         1 FF8       0.128000
     33 H6          -4.8060     1.6440    -0.1420 ha         1 FF8       0.126000
     34 H7          -2.3430     1.6460    -0.1590 ha         1 FF8       0.146000
     35 H8           3.9390    -0.0010     0.1680 hc         1 FF8       0.049700
     36 H10          3.9860    -1.1220     2.9800 hc         1 FF8       0.023700
     37 H11          3.5220    -2.1120     1.5890 hc         1 FF8       0.023700
     38 H12          5.1400    -1.4030     1.6690 hc         1 FF8       0.023700
     39 H13         -5.8950    -3.3780     4.5170 hn         1 FF8       0.318500
     40 H14         -5.8800    -1.4800     6.6330 h1         1 FF8       0.056200
     41 H15         -4.3450    -2.3590     6.6780 h1         1 FF8       0.056200
     42 H16         -5.5750    -4.5030     6.7700 hc         1 FF8       0.045700
     43 H17         -7.1100    -3.6230     6.7260 hc         1 FF8       0.045700
     44 H18         -6.5120    -2.4760     8.8350 hc         1 FF8       0.047200
     45 H19         -4.9780    -3.3570     8.8780 hc         1 FF8       0.047200
     46 H20         -6.2100    -5.4990     8.9720 hc         1 FF8       0.040700
     47 H21         -7.7440    -4.6190     8.9280 hc         1 FF8       0.040700
     48 H22         -5.6130    -4.3530    11.0800 hc         1 FF8       0.041700
     49 H23         -7.1470    -3.4730    11.0360 hc         1 FF8       0.041700
     50 H24         -8.3780    -5.6160    11.1300 hc         1 FF8       0.031700
     51 H25         -7.3000    -5.4440    12.5220 hc         1 FF8       0.031700
     52 H26         -6.8440    -6.4960    11.1740 hc         1 FF8       0.031700
     53 H4          -2.3320    -1.6420     2.5970 ha         1 FF8       0.145000
@<TRIPOS>BOND
     1    27    28 1
     2    27    26 1
     3    25    26 1
     4    25    24 1
     5    23    24 1
     6    23    22 1
     7    21    20 2
     8    22    20 1
     9    20    19 1
    10    16    13 1
    11    19     9 1
    12    18     1 1
    13     2     1 ar
    14     2     3 ar
    15    13     3 1
    16    13    14 1
    17     1     6 ar
    18     7     9 ar
    19     7     8 ar
    20     3     4 ar
    21     9    10 ar
    22    17    14 1
    23     6     8 1
    24     6     5 ar
    25    14    15 1
    26     4     5 ar
    27     8    12 ar
    28    10    11 ar
    29    12    11 ar
    30     2    29 1
    31     4    30 1
    32     5    31 1
    33     7    53 1
    34    10    32 1
    35    11    33 1
    36    12    34 1
    37    13    35 1
    38    16    36 1
    39    16    37 1
    40    16    38 1
    41    22    39 1
    42    23    40 1
    43    23    41 1
    44    24    42 1
    45    24    43 1
    46    25    44 1
    47    25    45 1
    48    26    46 1
    49    26    47 1
    50    27    48 1
    51    27    49 1
    52    28    50 1
    53    28    51 1
    54    28    52 1
@<TRIPOS>SUBSTRUCTURE
     1 FF8         1 TEMP              0 ****  ****    0 ROOT
