@<TRIPOS>MOLECULE
FF8
   53    54     1     0     0
SMALL
bcc


@<TRIPOS>ATOM
      1 C01          0.0000     0.0000     0.0000 ca         1 FF8       0.092900
      2 C02          1.3820     0.0000     0.0000 ca         1 FF8      -0.150000
      3 C03          2.0750     0.0000     1.1970 ca         1 FF8       0.022700
      4 C04          1.3920    -0.0010     2.3990 ca         1 FF8      -0.071000
      5 C05          0.0110    -0.0000     2.4120 ca         1 FF8      -0.077000
      6 C06         -0.6940     0.0010     1.2110 cp         1 FF8      -0.116000
      7 C07         -2.8730    -0.9210     1.9960 ca         1 FF8      -0.107000
      8 C08         -2.1780     0.0010     1.2180 cp         1 FF8       0.023000
      9 C09         -4.2580    -0.9150     2.0000 ca         1 FF8       0.124100
     10 C10         -4.9500     0.0100     1.2290 ca         1 FF8      -0.129000
     11 C11         -4.2610     0.9250     0.4570 ca         1 FF8      -0.093000
     12 C12         -2.8800     0.9270     0.4480 ca         1 FF8      -0.092000
     13 C13          3.5820    -0.0010     1.1910 c3         1 FF8      -0.121400
     14 C14          4.0880     1.2290     1.9000 c          1 FF8       0.982600
     15 O15          5.4080     1.4410     2.0170 o          1 FF8      -0.889300
     16 C16          4.0950    -1.2510     1.9100 c3         1 FF8       0.032900
     17 O17          3.3050     2.0250     2.3620 o          1 FF8      -0.889300
     18 F18         -0.6780     0.0060    -1.1690 f          1 FF8      -0.145900
     19 O19         -4.9400    -1.8140     2.7580 os         1 FF8      -0.332200
     20 C20         -4.8860    -1.6540     4.0930 c          1 FF8       0.668100
     21 O21         -4.3400    -0.6760     4.5670 o          1 FF8      -0.633000
     22 N22         -5.4380    -2.5770     4.9070 ns         1 FF8      -0.186900
     23 C23         -5.3800    -2.4020     6.3600 c3         1 FF8       0.063000
     24 C24         -6.0750    -3.5810     7.0430 c3         1 FF8      -0.043400
     25 C25         -6.0130    -3.3980     8.5620 c3         1 FF8      -0.022400
     26 C26         -6.7090    -4.5770     9.2450 c3         1 FF8      -0.030400
     27 C27         -6.6480    -4.3950    10.7630 c3         1 FF8      -0.028400
     28 C28         -7.3430    -5.5740    11.4470 c3         1 FF8       0.006900
     29 H1           1.9230    -0.0010    -0.9390 ha         1 FF8       0.115000
     30 H2           1.9410    -0.0030     3.3330 ha         1 FF8       0.128000
     31 H3          -0.5210     0.0590     3.3530 ha         1 FF8       0.106000
     32 H5          -6.0330     0.0140     1.2330 ha         1 FF8       0.101000
     33 H6          -4.8060     1.6440    -0.1420 ha         1 FF8       0.097000
     34 H7          -2.3430     1.6460    -0.1590 ha         1 FF8       0.119000
     35 H8           3.9390    -0.0010     0.1680 hc         1 FF8       0.025700
     36 H10          3.9860    -1.1220     2.9800 hc         1 FF8      -0.006967
     37 H11          3.5220    -2.1120     1.5890 hc         1 FF8      -0.006967
     38 H12          5.1400    -1.4030     1.6690 hc         1 FF8      -0.006967
     39 H13         -5.8950    -3.3780     4.5170 hn         1 FF8       0.172500
     40 H14         -5.8800    -1.4800     6.6330 h1         1 FF8       0.028200
     41 H15         -4.3450    -2.3590     6.6780 h1         1 FF8       0.028200
     42 H16         -5.5750    -4.5030     6.7700 hc         1 FF8       0.016200
     43 H17         -7.1100    -3.6230     6.7260 hc         1 FF8       0.016200
     44 H18         -6.5120    -2.4760     8.8350 hc         1 FF8       0.019700
     45 H19         -4.9780    -3.3570     8.8780 hc         1 FF8       0.019700
     46 H20         -6.2100    -5.4990     8.9720 hc         1 FF8       0.013700
     47 H21         -7.7440    -4.6190     8.9280 hc         1 FF8       0.013700
     48 H22         -5.6130    -4.3530    11.0800 hc         1 FF8       0.013700
     49 H23         -7.1470    -3.4730    11.0360 hc         1 FF8       0.013700
     50 H24         -8.3780    -5.6160    11.1300 hc         1 FF8      -0.000633
     51 H25         -7.3000    -5.4440    12.5220 hc         1 FF8      -0.000633
     52 H26         -6.8440    -6.4960    11.1740 hc         1 FF8      -0.000633
     53 H4          -2.3320    -1.6420     2.5970 ha         1 FF8       0.119000
@<TRIPOS>BOND
     1     1     2 ar  
     2     1     6 ar  
     3     1    18 1   
     4     2     3 ar  
     5     2    29 1   
     6     3     4 ar  
     7     3    13 1   
     8     4     5 ar  
     9     4    30 1   
    10     5     6 ar  
    11     5    31 1   
    12     6     8 1   
    13     7     8 ar  
    14     7     9 ar  
    15     7    53 1   
    16     8    12 ar  
    17     9    10 ar  
    18     9    19 1   
    19    10    11 ar  
    20    10    32 1   
    21    11    12 ar  
    22    11    33 1   
    23    12    34 1   
    24    13    14 1   
    25    13    16 1   
    26    13    35 1   
    27    14    15 1   
    28    14    17 1   
    29    16    36 1   
    30    16    37 1   
    31    16    38 1   
    32    19    20 1   
    33    20    21 2   
    34    20    22 1   
    35    22    23 1   
    36    22    39 1   
    37    23    24 1   
    38    23    40 1   
    39    23    41 1   
    40    24    25 1   
    41    24    42 1   
    42    24    43 1   
    43    25    26 1   
    44    25    44 1   
    45    25    45 1   
    46    26    27 1   
    47    26    46 1   
    48    26    47 1   
    49    27    28 1   
    50    27    48 1   
    51    27    49 1   
    52    28    50 1   
    53    28    51 1   
    54    28    52 1   
@<TRIPOS>SUBSTRUCTURE
     1 FF8         1 TEMP              0 ****  ****    0 ROOT
