@<TRIPOS>MOLECULE
FFA
   49    52     1     0     0
SMALL
bcc


@<TRIPOS>ATOM
      1 C1          1.5090    0.0440   -0.0060 c3        1 FFA     -0.070400
      2 C2          2.1170   -0.9440    0.9620 c3        1 FFA     -0.182400
      3 C3          1.6180   -0.7200    2.3610 c         1 FFA      0.570300
      4 C4          0.2110   -0.3170    2.4700 ce        1 FFA     -0.266200
      5 C5         -0.5500    0.0180    1.4130 c2        1 FFA     -0.026400
      6 C6         -0.0280    0.0430   -0.0030 c3        1 FFA     -0.015800
      7 C7         -0.5030    1.3340   -0.7060 c3        1 FFA     -0.047700
      8 C8         -2.0200    1.5390   -0.5740 c3        1 FFA     -0.048700
      9 C9         -2.4100    1.5950    0.8930 c3        1 FFA     -0.072400
     10 C10        -1.9970    0.3250    1.6020 c3        1 FFA     -0.054200
     11 C11        -0.0460    1.3940   -2.1600 c3        1 FFA     -0.075400
     12 C12        -0.5310    2.6270   -2.9080 c3        1 FFA     -0.060400
     13 C14        -2.3740    2.8330   -1.2770 c3        1 FFA     -0.065700
     14 C13        -2.0370    2.7710   -2.7830 c3        1 FFA     -0.043000
     15 C15        -3.8080    3.3440   -1.2330 c3        1 FFA     -0.069400
     16 C16        -3.8950    4.3290   -2.4020 c3        1 FFA     -0.114400
     17 C17        -2.6540    4.0990   -3.2940 c3        1 FFA      0.142100
     18 C18        -2.7430    1.6450   -3.5230 c3        1 FFA     -0.088100
     19 C19        -0.5260   -1.2120   -0.7140 c3        1 FFA     -0.085100
     20 O3          2.3370   -0.8960    3.3520 o         1 FFA     -0.537100
     21 O17        -1.6940    5.1330   -3.1430 oh        1 FFA     -0.595800
     22 H11         1.8750    1.0750    0.2480 hc        1 FFA      0.050700
     23 H12         1.8720   -0.1970   -1.0400 hc        1 FFA      0.050700
     24 H21         1.8510   -1.9940    0.6660 hc        1 FFA      0.071200
     25 H22         3.2350   -0.8600    0.9390 hc        1 FFA      0.071200
     26 H4         -0.1970   -0.3130    3.4950 ha        1 FFA      0.147000
     27 H7         -0.0120    2.1960   -0.1650 hc        1 FFA      0.053700
     28 H8         -2.5650    0.6830   -1.0580 hc        1 FFA      0.054700
     29 H91        -3.5200    1.7310    0.9800 hc        1 FFA      0.047700
     30 H92        -1.9230    2.4800    1.3810 hc        1 FFA      0.047700
     31 H101       -2.5900   -0.5410    1.1960 hc        1 FFA      0.055200
     32 H102       -2.2410    0.4130    2.6950 hc        1 FFA      0.055200
     33 H111        1.0760    1.3900   -2.1890 hc        1 FFA      0.041200
     34 H112       -0.3970    0.4760   -2.7020 hc        1 FFA      0.041200
     35 H121       -0.2430    2.5420   -3.9870 hc        1 FFA      0.054200
     36 H122       -0.0360    3.5460   -2.4970 hc        1 FFA      0.054200
     37 H14        -1.7270    3.6470   -0.8310 hc        1 FFA      0.062700
     38 H151       -4.5370    2.5070   -1.3610 hc        1 FFA      0.043700
     39 H152       -4.0300    3.8460   -0.2600 hc        1 FFA      0.043700
     40 H161       -3.9070    5.3820   -2.0270 hc        1 FFA      0.046700
     41 H162       -4.8270    4.1580   -2.9920 hc        1 FFA      0.046700
     42 H17        -2.9430    4.0240   -4.3770 h1        1 FFA      0.037700
     43 H181       -2.4840    1.6870   -4.6090 hc        1 FFA      0.037033
     44 H182       -2.4380    0.6470   -3.1300 hc        1 FFA      0.037033
     45 H183       -3.8510    1.7420   -3.4160 hc        1 FFA      0.037033
     46 H191       -0.2880   -2.1180   -0.1050 hc        1 FFA      0.040033
     47 H192       -1.6300   -1.1690   -0.8670 hc        1 FFA      0.040033
     48 H193       -0.0310   -1.3210   -1.7090 hc        1 FFA      0.040033
     49 HO17       -2.1360    5.9560   -3.3830 ho        1 FFA      0.399000
@<TRIPOS>BOND
     1    1    2 1   
     2    1    6 1   
     3    1   22 1   
     4    1   23 1   
     5    2    3 1   
     6    2   24 1   
     7    2   25 1   
     8    3    4 1   
     9    3   20 2   
    10    4    5 2   
    11    4   26 1   
    12    5    6 1   
    13    5   10 1   
    14    6    7 1   
    15    6   19 1   
    16    7    8 1   
    17    7   11 1   
    18    7   27 1   
    19    8    9 1   
    20    8   13 1   
    21    8   28 1   
    22    9   10 1   
    23    9   29 1   
    24    9   30 1   
    25   10   31 1   
    26   10   32 1   
    27   11   12 1   
    28   11   33 1   
    29   11   34 1   
    30   12   14 1   
    31   12   35 1   
    32   12   36 1   
    33   13   14 1   
    34   13   15 1   
    35   13   37 1   
    36   14   17 1   
    37   14   18 1   
    38   15   16 1   
    39   15   38 1   
    40   15   39 1   
    41   16   17 1   
    42   16   40 1   
    43   16   41 1   
    44   17   21 1   
    45   17   42 1   
    46   18   43 1   
    47   18   44 1   
    48   18   45 1   
    49   19   46 1   
    50   19   47 1   
    51   19   48 1   
    52   21   49 1   
@<TRIPOS>SUBSTRUCTURE
     1 FFA         1 TEMP              0 ****  ****    0 ROOT
