@<TRIPOS>MOLECULE
molecule
   49    52     1     0     0
SMALL
bcc


@<TRIPOS>ATOM
      1 C1           1.5570     0.0000     0.0000 c3         1 FFA      -0.070400
      2 C2           2.1660    -0.9810     0.9890 c3         1 FFA      -0.171400
      3 C3           1.6380    -0.7250     2.3750 c          1 FFA       0.567300
      4 C4           0.2310    -0.2850     2.5160 ce         1 FFA      -0.260200
      5 C5          -0.5250     0.0000     1.4420 c2         1 FFA      -0.041400
      6 C6           0.0000     0.0000     0.0000 c3         1 FFA      -0.018800
      7 C7          -0.4940     1.3020    -0.7400 c3         1 FFA      -0.048700
      8 C8          -2.0260     1.5510    -0.5720 c3         1 FFA      -0.049700
      9 C9          -2.3900     1.6060     0.9170 c3         1 FFA      -0.070400
     10 C10         -1.9880     0.3210     1.6300 c3         1 FFA      -0.050200
     11 C11         -0.0570     1.3840    -2.2290 c3         1 FFA      -0.069400
     12 C12         -0.5640     2.6480    -2.9480 c3         1 FFA      -0.058400
     13 C14         -2.4000     2.8550    -1.2870 c3         1 FFA      -0.062700
     14 C13         -2.0820     2.8170    -2.7950 c3         1 FFA      -0.059000
     15 C15         -3.8480     3.3300    -1.2350 c3         1 FFA      -0.069400
     16 C16         -3.9740     4.3070    -2.4210 c3         1 FFA      -0.107400
     17 C17         -2.6690     4.1750    -3.2360 c3         1 FFA       0.150100
     18 C18         -2.8150     1.6970    -3.5740 c3         1 FFA      -0.081100
     19 C19         -0.5000    -1.2870    -0.6950 c3         1 FFA      -0.079100
     20 O3           2.3160    -0.9370     3.3780 o          1 FFA      -0.535100
     21 O17         -1.7980     5.2480    -2.8920 oh         1 FFA      -0.602800
     22 H11          1.9010     0.9970     0.2470 hc         1 FFA       0.049700
     23 H12          1.9010    -0.2550    -0.9950 hc         1 FFA       0.049700
     24 H21          1.9130    -1.9910     0.6920 hc         1 FFA       0.071200
     25 H22          3.2430    -0.8620     0.9910 hc         1 FFA       0.071200
     26 H4          -0.1990    -0.1930     3.5060 ha         1 FFA       0.150000
     27 H7          -0.0030     2.1290    -0.2420 hc         1 FFA       0.048700
     28 H8          -2.5660     0.7320    -1.0330 hc         1 FFA       0.048700
     29 H91         -3.4600     1.7450     1.0150 hc         1 FFA       0.047700
     30 H92         -1.8740     2.4410     1.3760 hc         1 FFA       0.047700
     31 H101        -2.1890     0.4310     2.6890 hc         1 FFA       0.053200
     32 H102        -2.5800    -0.4970     1.2380 hc         1 FFA       0.053200
     33 H111         1.0250     1.3740    -2.2710 hc         1 FFA       0.040200
     34 H112        -0.4390     0.5140    -2.7490 hc         1 FFA       0.040200
     35 H121        -0.3220     2.5740    -4.0010 hc         1 FFA       0.049700
     36 H122        -0.0680     3.5150    -2.5260 hc         1 FFA       0.049700
     37 H14         -1.7920     3.6380    -0.8490 hc         1 FFA       0.064700
     38 H151        -4.5240     2.4940    -1.3630 hc         1 FFA       0.043700
     39 H152        -4.0430     3.8450    -0.3020 hc         1 FFA       0.043700
     40 H161        -4.8230     4.0350    -3.0360 hc         1 FFA       0.049700
     41 H162        -4.0810     5.3210    -2.0560 hc         1 FFA       0.049700
     42 H17         -2.8820     4.1710    -4.2980 h1         1 FFA       0.035700
     43 H181        -2.1010     0.9420    -3.8790 hc         1 FFA       0.037367
     44 H182        -3.2920     2.1190    -4.4500 hc         1 FFA       0.037367
     45 H183        -3.5660     1.2460    -2.9360 hc         1 FFA       0.037367
     46 H191        -1.5310    -1.1550    -0.9990 hc         1 FFA       0.039700
     47 H192        -0.4300    -2.1190    -0.0050 hc         1 FFA       0.039700
     48 H193         0.1110    -1.4870    -1.5660 hc         1 FFA       0.039700
     49 HO17        -1.8830     5.9380    -3.5290 ho         1 FFA       0.401000
@<TRIPOS>BOND
     1     1     6 1
     2     1     2 1
     3     1    22 1
     4     1    23 1
     5     2     3 1
     6     2    24 1
     7     2    25 1
     8     3     4 1
     9     3    20 2
    10     4     5 2
    11     4    26 1
    12     5     6 1
    13     5    10 1
    14     6     7 1
    15     6    19 1
    16     7    11 1
    17     7     8 1
    18     7    27 1
    19     8    13 1
    20     8     9 1
    21     8    28 1
    22     9    10 1
    23     9    29 1
    24     9    30 1
    25    10    31 1
    26    10    32 1
    27    11    12 1
    28    11    33 1
    29    11    34 1
    30    12    14 1
    31    12    35 1
    32    12    36 1
    33    13    14 1
    34    13    15 1
    35    13    37 1
    36    14    17 1
    37    14    18 1
    38    15    16 1
    39    15    38 1
    40    15    39 1
    41    16    17 1
    42    16    40 1
    43    16    41 1
    44    17    21 1
    45    17    42 1
    46    18    43 1
    47    18    44 1
    48    18    45 1
    49    19    46 1
    50    19    47 1
    51    19    48 1
    52    21    49 1
@<TRIPOS>SUBSTRUCTURE
     1 FFA         1 TEMP              0 ****  ****    0 ROOT
