@<TRIPOS>MOLECULE
molecule
   35    36     1     0     0
SMALL
bcc


@<TRIPOS>ATOM
      1 C01          0.0000     0.0000     0.0000 ca         1 FFB      -0.096000
      2 C02          1.3790     0.0000     0.0000 ca         1 FFB      -0.033500
      3 C03          2.0740     0.0000     1.1960 ca         1 FFB      -0.331500
      4 C04          1.3920     0.0010     2.4000 ca         1 FFB      -0.033500
      5 C05          0.0130     0.0010     2.4130 ca         1 FFB      -0.096000
      6 C06         -0.6950     0.0010     1.2100 ca         1 FFB      -0.038600
      7 C07         -2.1730     0.0010     1.2180 c          1 FFB       0.655700
      8 O08         -2.7860     0.0010     0.1690 o          1 FFB      -0.563100
      9 N09         -2.8410     0.0020     2.3890 ns         1 FFB      -0.569900
     10 C10         -4.3060     0.0020     2.3970 c3         1 FFB       0.170300
     11 S11          3.8370    -0.0010     1.1860 sy         1 FFB       1.228200
     12 NP2          4.3270     1.5810     1.1840 nz         1 FFB      -0.807500
     13 O13          4.2440    -0.5440     2.4340 o          1 FFB      -0.514300
     14 O14          4.2310    -0.5460    -0.0650 o          1 FFB      -0.514300
     15 C15         -4.8010     0.0030     3.8190 ca         1 FFB      -0.184300
     16 C16         -5.0270     1.2020     4.4720 ca         1 FFB       0.146900
     17 C17         -5.4830     1.2040     5.7810 ca         1 FFB       0.072900
     18 C18         -5.7110     0.0040     6.4360 ca         1 FFB       0.125900
     19 C19         -5.4830    -1.1960     5.7820 ca         1 FFB       0.072900
     20 C20         -5.0340    -1.1960     4.4710 ca         1 FFB       0.146900
     21 F21         -4.8050     2.3720     3.8340 f          1 FFB      -0.102900
     22 F22         -5.7040     2.3740     6.4190 f          1 FFB      -0.092900
     23 F23         -6.1550     0.0050     7.7130 f          1 FFB      -0.085900
     24 F24         -5.7060    -2.3660     6.4200 f          1 FFB      -0.092900
     25 F25         -4.8170    -2.3660     3.8310 f          1 FFB      -0.102900
     26 H01C        -0.5430    -0.0000    -0.9380 ha         1 FFB       0.175500
     27 H02C         1.9200    -0.0010    -0.9390 ha         1 FFB       0.160000
     28 H04C         1.9410     0.0010     3.3330 ha         1 FFB       0.160000
     29 H05C        -0.5210     0.0010     3.3560 ha         1 FFB       0.175500
     30 H09N        -2.3360     0.0020     3.2530 hn         1 FFB       0.317500
     31 H101        -4.6690     0.8860     1.8870 h1         1 FFB       0.086200
     32 H102        -4.6700    -0.8830     1.8880 h1         1 FFB       0.086200
     33 HNP1         3.9790     2.0390     2.0020 hn         1 FFB       0.493133
     34 HNP2         3.9720     2.0390     0.3680 hn         1 FFB       0.493133
     35 HP23         5.3270     1.6200     1.1790 hn         1 FFB       0.493133
@<TRIPOS>BOND
     1     1     2 ar
     2     1     6 ar
     3     1    26 1
     4     2     3 ar
     5     2    27 1
     6     3     4 ar
     7     3    11 1
     8     4     5 ar
     9     4    28 1
    10     5     6 ar
    11     5    29 1
    12     6     7 1
    13     7     8 2
    14     7     9 1
    15     9    10 1
    16     9    30 1
    17    10    15 1
    18    10    31 1
    19    10    32 1
    20    11    12 1
    21    11    13 2
    22    11    14 2
    23    12    33 1
    24    12    34 1
    25    15    16 ar
    26    15    20 ar
    27    16    17 ar
    28    16    21 1
    29    17    18 ar
    30    17    22 1
    31    18    19 ar
    32    18    23 1
    33    19    20 ar
    34    19    24 1
    35    20    25 1
    36    35    12 1
@<TRIPOS>SUBSTRUCTURE
     1 FFB         1 TEMP              0 ****  ****    0 ROOT
