@<TRIPOS>MOLECULE
molecule
   49    48     1     0     0
SMALL
bcc


@<TRIPOS>ATOM
      1 PA           0.0000     0.0000     0.0000 p5         1 FFF       1.238800
      2 O1A          1.4790     0.0000     0.0000 o          1 FFF      -0.792000
      3 O2A         -0.5360     0.0000     1.5180 o          1 FFF      -0.792000
      4 O5A         -0.5360    -1.3150    -0.7590 os         1 FFF      -0.543200
      5 PB           0.0350     2.5840     0.0500 p5         1 FFF       1.185900
      6 O1B          1.5140     2.5450     0.0490 o          1 FFF      -0.862167
      7 O2B         -0.4660     3.9410    -0.6570 o          1 FFF      -0.862167
      8 O3A         -0.5370     1.3140    -0.7580 os         1 FFF      -0.647800
      9 O3B         -0.5010     2.5410     1.5670 o          1 FFF      -0.862167
     10 C1          -0.0300    -2.4410    -0.0420 c3         1 FFF       0.160600
     11 C2          -0.4990    -3.7110    -0.7060 c2         1 FFF      -0.017200
     12 C3           0.3400    -4.6980    -0.8960 c2         1 FFF      -0.318400
     13 C4          -0.1330    -5.9750    -1.5390 c3         1 FFF      -0.010200
     14 C5           0.0350    -5.8770    -3.0560 c3         1 FFF      -0.052200
     15 C6          -0.4390    -7.1550    -3.6980 c2         1 FFF      -0.169200
     16 C7          -1.3460    -7.1150    -4.6430 c2         1 FFF      -0.159400
     17 C8          -1.9100    -8.3980    -5.2000 c3         1 FFF      -0.030200
     18 C9          -3.1400    -8.8070    -4.3890 c3         1 FFF      -0.034200
     19 C10         -3.7050   -10.0890    -4.9460 c2         1 FFF      -0.219200
     20 C11         -3.8870   -11.1210    -4.1590 c2         1 FFF      -0.202400
     21 C12         -4.3340   -12.4380    -4.7360 c3         1 FFF      -0.031900
     22 C15         -3.6490   -10.9880    -2.6770 c3         1 FFF      -0.031900
     23 C13         -1.8240    -5.7890    -5.1730 c3         1 FFF      -0.046900
     24 C14          1.7800    -4.5560    -0.4730 c3         1 FFF       0.673100
     25 F1           1.8370    -4.2130     0.8800 f          1 FFF      -0.228633
     26 F2           2.4470    -5.7690    -0.6740 f          1 FFF      -0.228633
     27 F3           2.3930    -3.5560    -1.2350 f          1 FFF      -0.228633
     28 H11          1.0530    -2.4120    -0.0430 h1         1 FFF       0.076200
     29 H12         -0.3910    -2.4120     0.9780 h1         1 FFF       0.076200
     30 H2          -1.5330    -3.8130    -1.0100 ha         1 FFF       0.125000
     31 H41         -1.1790    -6.1330    -1.3010 hc         1 FFF       0.035700
     32 H42          0.4510    -6.8070    -1.1640 hc         1 FFF       0.035700
     33 H51          1.0800    -5.7200    -3.2940 hc         1 FFF       0.060200
     34 H52         -0.5500    -5.0460    -3.4310 hc         1 FFF       0.060200
     35 H6          -0.0960    -8.1090    -3.3170 ha         1 FFF       0.110000
     36 H81         -1.1610    -9.1780    -5.1390 hc         1 FFF       0.033200
     37 H82         -2.1930    -8.2490    -6.2350 hc         1 FFF       0.033200
     38 H91         -3.8880    -8.0260    -4.4490 hc         1 FFF       0.046700
     39 H92         -2.8570    -8.9570    -3.3540 hc         1 FFF       0.046700
     40 H10         -3.8760   -10.1850    -6.0110 ha         1 FFF       0.104000
     41 H121        -5.4160   -12.4710    -4.7670 hc         1 FFF       0.024700
     42 H122        -3.9660   -13.2470    -4.1160 hc         1 FFF       0.024700
     43 H123        -3.9400   -12.5450    -5.7400 hc         1 FFF       0.024700
     44 H151        -4.1870   -10.1270    -2.3000 hc         1 FFF       0.024700
     45 H152        -2.5890   -10.8610    -2.4910 hc         1 FFF       0.024700
     46 H153        -3.9990   -11.8810    -2.1740 hc         1 FFF       0.024700
     47 H131        -2.3870    -5.2740    -4.4040 hc         1 FFF       0.040700
     48 H132        -2.4580    -5.9520    -6.0360 hc         1 FFF       0.040700
     49 H133        -0.9710    -5.1860    -5.4600 hc         1 FFF       0.040700
@<TRIPOS>BOND
     1     1     2 1
     2     1     3 1
     3     1     4 1
     4     1     8 1
     5     4    10 1
     6     5     6 1
     7     5     7 1
     8     5     8 1
     9     5     9 1
    10    10    11 1
    11    10    28 1
    12    10    29 1
    13    11    12 2
    14    11    30 1
    15    12    13 1
    16    12    24 1
    17    13    14 1
    18    13    31 1
    19    13    32 1
    20    14    15 1
    21    14    33 1
    22    14    34 1
    23    15    16 2
    24    15    35 1
    25    16    17 1
    26    16    23 1
    27    17    18 1
    28    17    36 1
    29    17    37 1
    30    18    19 1
    31    18    38 1
    32    18    39 1
    33    19    20 2
    34    19    40 1
    35    20    21 1
    36    20    22 1
    37    21    41 1
    38    21    42 1
    39    21    43 1
    40    22    44 1
    41    22    45 1
    42    22    46 1
    43    23    47 1
    44    23    48 1
    45    23    49 1
    46    24    25 1
    47    24    26 1
    48    24    27 1
@<TRIPOS>SUBSTRUCTURE
     1 FFF         1 TEMP              0 ****  ****    0 ROOT
