@<TRIPOS>MOLECULE
FFG
   73    79     1     0     0
SMALL
bcc


@<TRIPOS>ATOM
      1 C13          0.0000     0.0000     0.0000 cp         1 FFG      -0.009000
      2 C18          4.9840     2.9940     5.2510 ca         1 FFG      -0.193200
      3 C17         -1.6710    -0.9970    -1.5610 ca         1 FFG      -0.081300
      4 C16          3.9460    -0.4030     5.6590 cc         1 FFG      -0.240600
      5 C15          6.5240     4.8020     4.8710 ca         1 FFG      -0.111900
      6 C19          1.3870    -0.0010     2.3980 ca         1 FFG      -0.093400
      7 C20          3.8730     0.8180     4.9940 cd         1 FFG      -0.338900
      8 C21          4.8600    -0.2690     6.6830 cc         1 FFG       0.265600
      9 C22          7.9090     5.3230     4.8480 cc         1 FFG       0.287500
     10 C23          2.9670     0.9980     3.8500 c          1 FFG       0.679100
     11 C24          9.6220     6.7010     4.6030 c          1 FFG       0.537500
     12 C11         -0.0020    -0.0030     2.4010 ca         1 FFG      -0.092500
     13 C12          6.2820     3.4760     5.2300 ca         1 FFG      -0.022000
     14 C27          1.8410    -1.0780     4.5590 c3         1 FFG       0.043000
     15 C1          -1.2100     1.0160    -3.4110 ca         1 FFG      -0.100000
     16 C2          -2.1300     0.0180    -3.6800 ca         1 FFG      -0.100000
     17 C3           4.1650     5.1460     4.5580 ca         1 FFG      -0.088000
     18 C4          -0.5160     1.0140    -2.2180 ca         1 FFG      -0.091000
     19 C5           1.3940     0.0000     0.0000 ca         1 FFG      -0.082000
     20 C6          -0.6940    -0.0020     1.2090 ca         1 FFG      -0.082000
     21 C7           5.4570     5.6340     4.5350 ca         1 FFG      -0.072000
     22 C8          -2.3590    -0.9860    -2.7560 ca         1 FFG      -0.100000
     23 C9           3.9260     3.8320     4.9140 ca         1 FFG      -0.036000
     24 C10          2.0830     0.0000     1.1940 ca         1 FFG      -0.092500
     25 C14         -0.7430     0.0060    -1.2850 cp         1 FFG      -0.016000
     26 C25          3.1240    -1.5860     5.2190 c3         1 FFG       0.049900
     27 C26         -0.1840    -5.1610    -1.4610 c3         1 FFG      -0.049400
     28 C28         -0.7120    -3.7540    -1.8360 c3         1 FFG       0.149800
     29 C29         -0.9310    -4.0140     0.5370 c3         1 FFG       0.129800
     30 C30         -0.9030    -5.4140    -0.1090 c3         1 FFG       0.172100
     31 C32          5.2470    -1.3470     7.6630 c3         1 FFG       0.575600
     32 N33          5.3370     0.9570     6.6620 nd         1 FFG      -0.603800
     33 N34          8.9830     4.6450     5.1400 nd         1 FFG      -0.600300
     34 N35          4.7350     1.6620     5.6050 na         1 FFG       0.741300
     35 N36          8.2810     6.6090     4.5060 ns         1 FFG      -0.027400
     36 N37         10.0860     5.4970     4.9950 ns         1 FFG       0.094100
     37 N38          2.0870    -0.0020     3.6070 n          1 FFG       0.005000
     38 N39         -0.7970    -3.0270    -0.5510 n3         1 FFG      -0.532600
     39 O41         10.2930     7.6910     4.3760 o          1 FFG      -0.705500
     40 O42         -0.1550    -6.3280     0.6970 oh         1 FFG      -0.573800
     41 F43          6.3330    -2.0690     7.1560 f          1 FFG      -0.203300
     42 F44          5.6050    -0.7620     8.8820 f          1 FFG      -0.203300
     43 F45          4.1630    -2.2090     7.8590 f          1 FFG      -0.203300
     44 H11         -0.5420    -0.0040     3.3400 ha         1 FFG       0.110500
     45 H12          7.1070     2.8250     5.4930 ha         1 FFG       0.144000
     46 H27          1.1730    -0.7150     5.3300 h1         1 FFG       0.026700
     47 H27A         1.3680    -1.9010     4.0380 h1         1 FFG       0.026700
     48 H1          -1.0340     1.7990    -4.1380 ha         1 FFG       0.104000
     49 H2          -2.6730     0.0230    -4.6180 ha         1 FFG       0.103000
     50 H3           3.3380     5.7940     4.2960 ha         1 FFG       0.115000
     51 H4           0.2040     1.7960    -2.0080 ha         1 FFG       0.111000
     52 H5           1.9360     0.0010    -0.9380 ha         1 FFG       0.112500
     53 H6          -1.7770    -0.0030     1.2110 ha         1 FFG       0.112500
     54 H7           5.6400     6.6650     4.2550 ha         1 FFG       0.102000
     55 H8          -3.0810    -1.7650    -2.9720 ha         1 FFG       0.105000
     56 H9           2.9110     3.4530     4.9300 ha         1 FFG       0.128000
     57 H10          3.1660     0.0010     1.1940 ha         1 FFG       0.110500
     58 H25          2.8710    -2.1920     6.0810 hc         1 FFG       0.039700
     59 H25A         3.6880    -2.1760     4.5070 hc         1 FFG       0.039700
     60 H26A        -0.4840    -5.8950    -2.2000 hc         1 FFG       0.031700
     61 H28         -0.0170    -3.2580    -2.5030 h1         1 FFG       0.017700
     62 H28A        -1.6920    -3.8290    -2.2910 h1         1 FFG       0.017700
     63 H29         -0.1050    -3.9120     1.2300 h1         1 FFG       0.023700
     64 H29A        -1.8730    -3.8660     1.0530 h1         1 FFG       0.023700
     65 H30         -1.9100    -5.7770    -0.2760 h1         1 FFG       0.001700
     66 HN36         7.6600     7.3470     4.2350 hn         1 FFG       0.203500
     67 HN37        11.0450     5.2550     5.1530 hn         1 FFG       0.225500
     68 HO42        -0.6980    -7.0650     0.9210 ho         1 FFG       0.387000
     69 C31         -1.9260    -2.0870    -0.5520 c3         1 FFG       0.191100
     70 O40          3.0060     1.9960     3.1560 o          1 FFG      -0.670500
     71 H26          0.8910    -5.1480    -1.3300 hc         1 FFG       0.031700
     72 H31         -2.0330    -1.6500     0.4330 h1         1 FFG       0.019700
     73 H31A        -2.8350    -2.6150    -0.8130 h1         1 FFG       0.019700
@<TRIPOS>BOND
     1     1    19 ar  
     2     1    20 ar  
     3     1    25 1   
     4     2    13 ar  
     5     2    23 ar  
     6     2    34 1   
     7     3    22 ar  
     8     3    25 ar  
     9     3    69 1   
    10     4     7 2   
    11     4     8 1   
    12     4    26 1   
    13     5     9 1   
    14     5    13 ar  
    15     5    21 ar  
    16     6    12 ar  
    17     6    24 ar  
    18     6    37 1   
    19     7    10 1   
    20     7    34 1   
    21     8    31 1   
    22     8    32 2   
    23     9    33 2   
    24     9    35 1   
    25    10    37 1   
    26    10    70 2   
    27    11    35 1   
    28    11    36 1   
    29    11    39 2   
    30    12    20 ar  
    31    12    44 1   
    32    13    45 1   
    33    14    26 1   
    34    14    37 1   
    35    14    46 1   
    36    14    47 1   
    37    15    16 ar  
    38    15    18 ar  
    39    15    48 1   
    40    16    22 ar  
    41    16    49 1   
    42    17    21 ar  
    43    17    23 ar  
    44    17    50 1   
    45    18    25 ar  
    46    18    51 1   
    47    19    24 ar  
    48    19    52 1   
    49    20    53 1   
    50    21    54 1   
    51    22    55 1   
    52    23    56 1   
    53    24    57 1   
    54    26    58 1   
    55    26    59 1   
    56    27    28 1   
    57    27    30 1   
    58    27    60 1   
    59    27    71 1   
    60    28    38 1   
    61    28    61 1   
    62    28    62 1   
    63    29    30 1   
    64    29    38 1   
    65    29    63 1   
    66    29    64 1   
    67    30    40 1   
    68    30    65 1   
    69    31    41 1   
    70    31    42 1   
    71    31    43 1   
    72    32    34 1   
    73    33    36 1   
    74    35    66 1   
    75    36    67 1   
    76    38    69 1   
    77    40    68 1   
    78    69    72 1   
    79    69    73 1   
@<TRIPOS>SUBSTRUCTURE
     1 FFG         1 TEMP              0 ****  ****    0 ROOT
