@<TRIPOS>MOLECULE
FFJ
   43    44     1     0     0
SMALL
bcc


@<TRIPOS>ATOM
      1 C4           0.0000     0.0000     0.0000 cc         1 FFJ      -0.179500
      2 N4          -0.6920     0.0010    -1.1900 nz         1 FFJ       0.351400
      3 C5           1.4100     0.0000     0.0000 cc         1 FFJ      -0.209600
      4 C6           2.0650     0.0000     1.1860 cd         1 FFJ      -0.270400
      5 N3          -0.6570     0.0060     1.1530 nd         1 FFJ      -0.880100
      6 C2           0.0010     0.0060     2.3100 c          1 FFJ       0.761900
      7 O2          -0.6260     0.0100     3.3570 o          1 FFJ      -0.811500
      8 N1           1.3470    -0.0010     2.3440 n          1 FFJ      -0.028000
      9 C1'          2.0430    -0.0010     3.6330 c3         1 FFJ       0.251500
     10 C2'          1.7030     1.2790     4.4280 c3         1 FFJ      -0.118400
     11 C3'          1.6190     0.7980     5.8940 c3         1 FFJ       0.153100
     12 O3'          2.6000     1.4600     6.6960 oh         1 FFJ      -0.603800
     13 O4'          1.5700    -1.0860     4.4600 os         1 FFJ      -0.341600
     14 C4'          1.9190    -0.7150     5.8110 c3         1 FFJ       0.147100
     15 C5'          1.0560    -1.4840     6.8150 c3         1 FFJ       0.312400
     16 O5'          1.4300    -2.8640     6.8040 os         1 FFJ      -0.500200
     17 PA           0.7280    -3.9690     7.7390 p5         1 FFJ       0.969800
     18 O1A         -0.8170    -4.1300     7.3140 o          1 FFJ      -0.660500
     19 O2A          0.8070    -3.5410     9.1540 o          1 FFJ      -0.660500
     20 O3A          1.4820    -5.3800     7.5620 os         1 FFJ      -0.496800
     21 PB           1.4900    -6.7570     8.3970 p5         1 FFJ       0.675600
     22 O1B          2.0030    -6.4740     9.8970 o          1 FFJ      -0.441500
     23 O2B          0.1190    -7.3150     8.4410 o          1 FFJ      -0.441500
     24 C3B          2.6060    -7.9510     7.5900 c3         1 FFJ       0.782200
     25 F3B          3.9010    -7.4240     7.5480 f          1 FFJ      -0.202800
     26 F4B          2.1600    -8.1980     6.2860 f          1 FFJ      -0.202800
     27 PG           2.6130    -9.5110     8.5340 p5         1 FFJ       0.450700
     28 O2G          3.5990   -10.5650     7.8210 o          1 FFJ      -0.514833
     29 O1G          3.1260    -9.2260    10.0330 o          1 FFJ      -0.514833
     30 O3G          1.2430   -10.0680     8.5780 o          1 FFJ      -0.514833
     31 H1          -0.4560     0.8210    -1.7130 hn         1 FFJ       0.068800
     32 H2          -1.6750    -0.0050    -1.0040 hn         1 FFJ       0.068800
     33 H3           1.9600     0.0010    -0.9330 ha         1 FFJ       0.042000
     34 H4           3.1480    -0.0030     1.2130 h4         1 FFJ       0.082000
     35 H5           3.1140    -0.0790     3.4890 h2         1 FFJ      -0.015300
     36 H6           2.4910     2.0140     4.3160 hc         1 FFJ       0.030200
     37 H7           0.7500     1.6810     4.1070 hc         1 FFJ       0.030200
     38 H8           0.6230     0.9640     6.2890 h1         1 FFJ       0.019700
     39 H9           2.1850     2.1300     7.2130 ho         1 FFJ       0.364000
     40 H10          2.9710    -0.8980     5.9910 h1         1 FFJ       0.007700
     41 H11          0.0130    -1.3900     6.5410 h1         1 FFJ      -0.012300
     42 H12          1.2070    -1.0770     7.8070 h1         1 FFJ      -0.012300
     43 H43         -0.4590    -0.8210    -1.7120 hn         1 FFJ       0.068800
@<TRIPOS>BOND
     1     1     2 1   
     2     1     3 1   
     3     1     5 2   
     4     2    31 1   
     5     2    32 1   
     6     2    43 1   
     7     3     4 2   
     8     3    33 1   
     9     4     8 1   
    10     4    34 1   
    11     5     6 1   
    12     6     7 2   
    13     6     8 1   
    14     8     9 1   
    15     9    10 1   
    16     9    13 1   
    17     9    35 1   
    18    10    11 1   
    19    10    36 1   
    20    10    37 1   
    21    11    12 1   
    22    11    14 1   
    23    11    38 1   
    24    12    39 1   
    25    13    14 1   
    26    14    15 1   
    27    14    40 1   
    28    15    16 1   
    29    15    41 1   
    30    15    42 1   
    31    16    17 1   
    32    17    18 1   
    33    17    19 1   
    34    17    20 1   
    35    20    21 1   
    36    21    22 1   
    37    21    23 1   
    38    21    24 1   
    39    24    25 1   
    40    24    26 1   
    41    24    27 1   
    42    27    28 1   
    43    27    29 1   
    44    27    30 1   
@<TRIPOS>SUBSTRUCTURE
     1 FFJ         1 TEMP              0 ****  ****    0 ROOT
