@<TRIPOS>MOLECULE
molecule
   27    29     1     0     0
SMALL
bcc


@<TRIPOS>ATOM
      1 C01          0.0000     0.0000     0.0000 c3         1 FFN      -0.130400
      2 C02          1.5070     0.0000     0.0000 cc         1 FFN       0.502900
      3 N03          2.1390     0.0000     1.1360 nc         1 FFN      -0.632100
      4 N18          2.1670    -0.0060    -1.1860 ns         1 FFN      -0.457400
      5 C16          3.5140    -0.0060    -1.2150 c          1 FFN       0.718100
      6 O17          4.1130    -0.0110    -2.2770 o          1 FFN      -0.630500
      7 C15          4.2270    -0.0010     0.0220 cd         1 FFN      -0.249600
      8 C04          3.4880    -0.0000     1.1980 cc         1 FFN       0.267300
      9 S05          4.5690    -0.0010     2.5850 ss         1 FFN      -0.072800
     10 C06          5.9940    -0.0010     1.5640 cc         1 FFN      -0.095100
     11 C07          5.6620     0.0000     0.2740 cd         1 FFN       0.011000
     12 C08          6.6680    -0.0050    -0.8150 ca         1 FFN      -0.048000
     13 C09          7.7120     0.9190    -0.8060 ca         1 FFN      -0.068000
     14 C10          8.6460     0.9100    -1.8220 ca         1 FFN      -0.173000
     15 C11          8.5480    -0.0140    -2.8490 ca         1 FFN       0.137900
     16 F12          9.4640    -0.0190    -3.8420 f          1 FFN      -0.143900
     17 C13          7.5120    -0.9340    -2.8610 ca         1 FFN      -0.173000
     18 C14          6.5770    -0.9370    -1.8470 ca         1 FFN      -0.068000
     19 H1          -0.3610     0.8800    -0.5180 hc         1 FFN       0.069033
     20 H2          -0.3610     0.0080     1.0210 hc         1 FFN       0.069033
     21 H3          -0.3610    -0.8880    -0.5040 hc         1 FFN       0.069033
     22 H4           1.6510    -0.0110    -2.0430 hn         1 FFN       0.341500
     23 H5           7.0130    -0.0020     1.9340 h4         1 FFN       0.182000
     24 H6           7.7900     1.6430    -0.0040 ha         1 FFN       0.141500
     25 H7           9.4580     1.6270    -1.8170 ha         1 FFN       0.144500
     26 H8           7.4400    -1.6570    -3.6650 ha         1 FFN       0.144500
     27 H9           5.7670    -1.6570    -1.8580 ha         1 FFN       0.141500
@<TRIPOS>BOND
     1     9     8 1
     2     9    10 1
     3     3     8 1
     4     3     2 2
     5     8     7 2
     6    10    11 2
     7     1     2 1
     8     2     4 1
     9     7    11 1
    10     7     5 1
    11    11    12 1
    12    18    12 ar
    13    18    17 ar
    14     4     5 1
    15     5     6 2
    16    12    13 ar
    17    17    15 ar
    18    13    14 ar
    19    15    14 ar
    20    15    16 1
    21     1    19 1
    22     1    20 1
    23     1    21 1
    24     4    22 1
    25    10    23 1
    26    13    24 1
    27    14    25 1
    28    17    26 1
    29    18    27 1
@<TRIPOS>SUBSTRUCTURE
     1 FFN         1 TEMP              0 ****  ****    0 ROOT
