@<TRIPOS>MOLECULE
FFN
   27    29     1     0     0
SMALL
bcc


@<TRIPOS>ATOM
      1 C01          0.0000     0.0000     0.0000 c3         1 FFN      -0.025400
      2 C02          1.5070     0.0000     0.0000 cc         1 FFN       0.286900
      3 N03          2.1390     0.0000     1.1360 nd         1 FFN      -0.504100
      4 N18          2.1670    -0.0060    -1.1860 ns         1 FFN       0.020600
      5 C16          3.5140    -0.0060    -1.2150 c          1 FFN       0.622100
      6 O17          4.1130    -0.0110    -2.2770 o          1 FFN      -0.673500
      7 C15          4.2270    -0.0010     0.0220 cc         1 FFN      -0.251600
      8 C04          3.4880    -0.0000     1.1980 cd         1 FFN       0.279300
      9 S05          4.5690    -0.0010     2.5850 ss         1 FFN      -0.224800
     10 C06          5.9940    -0.0010     1.5640 cd         1 FFN      -0.014100
     11 C07          5.6620     0.0000     0.2740 cc         1 FFN       0.029000
     12 C08          6.6680    -0.0050    -0.8150 ca         1 FFN      -0.047000
     13 C09          7.7120     0.9190    -0.8060 ca         1 FFN      -0.042500
     14 C10          8.6460     0.9100    -1.8220 ca         1 FFN      -0.137500
     15 C11          8.5480    -0.0140    -2.8490 ca         1 FFN       0.108900
     16 F12          9.4640    -0.0190    -3.8420 f          1 FFN      -0.130900
     17 C13          7.5120    -0.9340    -2.8610 ca         1 FFN      -0.137500
     18 C14          6.5770    -0.9370    -1.8470 ca         1 FFN      -0.042500
     19 H1          -0.3610     0.8800    -0.5180 hc         1 FFN       0.025700
     20 H2          -0.3610     0.0080     1.0210 hc         1 FFN       0.025700
     21 H3          -0.3610    -0.8880    -0.5040 hc         1 FFN       0.025700
     22 H4           1.6510    -0.0110    -2.0430 hn         1 FFN       0.184500
     23 H5           7.0130    -0.0020     1.9340 h4         1 FFN       0.160000
     24 H6           7.7900     1.6430    -0.0040 ha         1 FFN       0.113000
     25 H7           9.4580     1.6270    -1.8170 ha         1 FFN       0.118000
     26 H8           7.4400    -1.6570    -3.6650 ha         1 FFN       0.118000
     27 H9           5.7670    -1.6570    -1.8580 ha         1 FFN       0.113000
@<TRIPOS>BOND
     1     1     2 1   
     2     1    19 1   
     3     1    20 1   
     4     1    21 1   
     5     2     3 2   
     6     2     4 1   
     7     3     8 1   
     8     4     5 1   
     9     4    22 1   
    10     5     6 2   
    11     5     7 1   
    12     7     8 2   
    13     7    11 1   
    14     8     9 1   
    15     9    10 1   
    16    10    11 2   
    17    10    23 1   
    18    11    12 1   
    19    12    13 ar  
    20    12    18 ar  
    21    13    14 ar  
    22    13    24 1   
    23    14    15 ar  
    24    14    25 1   
    25    15    16 1   
    26    15    17 ar  
    27    17    18 ar  
    28    17    26 1   
    29    18    27 1   
@<TRIPOS>SUBSTRUCTURE
     1 FFN         1 TEMP              0 ****  ****    0 ROOT
