@<TRIPOS>MOLECULE
molecule
   56    58     1     0     0
SMALL
bcc


@<TRIPOS>ATOM
      1 N1           0.0000     0.0000     0.0000 nc         1 FFO      -0.631300
      2 C2           1.3170     0.0000     0.0000 cd         1 FFO       0.319800
      3 NA2          1.9850     0.0030    -1.1980 nz         1 FFO      -0.692600
      4 N3           2.0310     0.0000     1.1580 ns         1 FFO      -0.448400
      5 C4           1.3930    -0.0050     2.3490 c          1 FFO       0.720700
      6 O4           2.0240    -0.0080     3.3960 o          1 FFO      -0.643500
      7 C4A         -0.0060    -0.0060     2.3570 cd         1 FFO      -0.146600
      8 N5          -0.7210    -0.0130     3.5720 n          1 FFO      -0.347000
      9 C6          -2.1500     0.3390     3.5480 c3         1 FFO       0.047700
     10 C7          -2.7980    -0.3790     2.3550 c3         1 FFO       0.201800
     11 N8          -2.0720     0.0030     1.1350 nu         1 FFO      -0.762000
     12 C8A         -0.6880    -0.0010     1.1460 cc         1 FFO       0.372600
     13 C9          -2.3060     1.8530     3.3860 c3         1 FFO       0.230800
     14 N10         -1.5560     2.5370     4.4420 nu         1 FFO      -0.834600
     15 C11         -1.5310     6.6950     4.6170 ca         1 FFO      -0.167600
     16 C12         -0.8240     5.9490     5.5670 ca         1 FFO      -0.044000
     17 C13         -0.8350     4.5740     5.5060 ca         1 FFO      -0.224500
     18 C14         -1.5480     3.9260     4.5010 ca         1 FFO       0.196600
     19 C15         -2.2520     4.6660     3.5550 ca         1 FFO      -0.224500
     20 C16         -2.2450     6.0410     3.6100 ca         1 FFO      -0.044000
     21 O           -0.9080     8.7370     5.5640 o          1 FFO      -0.630100
     22 N           -2.2070     8.8860     3.7680 ns         1 FFO      -0.532900
     23 CA          -2.2030    10.3500     3.8330 c3         1 FFO       0.086700
     24 CB          -2.4720    10.9230     2.4400 c3         1 FFO      -0.194400
     25 CG          -1.3170    10.5570     1.5060 c3         1 FFO      -0.143400
     26 CD          -1.5820    11.1220     0.1350 c          1 FFO       0.891600
     27 OE1         -0.6970    10.9240    -0.8540 o          1 FFO      -0.807800
     28 OE2         -2.5910    11.7520    -0.0730 o          1 FFO      -0.807800
     29 CT          -3.2770    10.8130     4.7840 c          1 FFO       0.887600
     30 O1          -3.4600    12.1250     5.0030 o          1 FFO      -0.776800
     31 O2          -3.9740    10.0040     5.3480 o          1 FFO      -0.776800
     32 C5A         -0.1110    -0.3380     4.7290 c          1 FFO       0.652900
     33 O5B         -0.7130    -0.2450     5.7790 o          1 FFO      -0.595100
     34 HN21         2.5390     0.8330    -1.2680 hn         1 FFO       0.449800
     35 HN22         2.5800    -0.8000    -1.2500 hn         1 FFO       0.449800
     36 H6          -2.6200     0.0150     4.4680 h1         1 FFO       0.107700
     37 H7          -3.1230    -1.2120     2.9670 h1         1 FFO       0.072700
     38 H91         -1.9220     2.1540     2.4180 h1         1 FFO       0.046200
     39 H92         -3.3540     2.1180     3.4570 h1         1 FFO       0.046200
     40 HN0         -1.0800     2.0040     5.1420 hn         1 FFO       0.446800
     41 H12         -0.2690     6.4530     6.3490 ha         1 FFO       0.149000
     42 H13         -0.2880     3.9960     6.2400 ha         1 FFO       0.119000
     43 H15         -2.8060     4.1590     2.7740 ha         1 FFO       0.119000
     44 H16         -2.7930     6.6160     2.8730 ha         1 FFO       0.149000
     45 HN          -2.7480     8.4180     3.0680 hn         1 FFO       0.315500
     46 HA          -1.2380    10.6930     4.1850 h1         1 FFO       0.060700
     47 HB1         -1.6330    11.2810     3.0250 hc         1 FFO       0.105700
     48 HB2         -3.0510    11.8260     2.2850 hc         1 FFO       0.105700
     49 HG1         -0.3940    10.9690     1.8950 hc         1 FFO       0.026200
     50 HG2         -1.2320     9.4790     1.4420 hc         1 FFO       0.026200
     51 H5A          0.8990    -0.7300     4.7170 h5         1 FFO       0.085200
     52 H22          3.0310     0.0000     1.1280 hn         1 FFO       0.329500
     53 H23         -3.7340     0.1400     2.1920 h1         1 FFO       0.072700
     54 H24         -2.5720     0.2620     0.3070 hn         1 FFO       0.465800
     55 HA23         1.3240    -0.0140    -1.9490 hn         1 FFO       0.449800
     56 C           -1.5260     8.1690     4.6830 c          1 FFO       0.667700
@<TRIPOS>BOND
     1     1     2 2
     2     1    12 1
     3     2     3 1
     4     2     4 1
     5     3    34 1
     6     3    35 1
     7     4     5 1
     8     4    52 1
     9     5     6 2
    10     5     7 1
    11     7     8 1
    12     7    12 2
    13     8     9 1
    14     8    32 1
    15     9    10 1
    16     9    13 1
    17     9    36 1
    18    10    11 1
    19    10    37 1
    20    10    53 1
    21    11    12 1
    22    11    54 1
    23    13    14 1
    24    13    38 1
    25    13    39 1
    26    14    18 1
    27    14    40 1
    28    15    16 ar
    29    15    20 ar
    30    15    56 1
    31    16    17 ar
    32    16    41 1
    33    17    18 ar
    34    17    42 1
    35    18    19 ar
    36    19    20 ar
    37    19    43 1
    38    20    44 1
    39    56    21 2
    40    56    22 1
    41    22    23 1
    42    22    45 1
    43    23    24 1
    44    23    29 1
    45    23    46 1
    46    24    25 1
    47    24    47 1
    48    24    48 1
    49    25    26 1
    50    25    49 1
    51    25    50 1
    52    26    27 1
    53    26    28 1
    54    29    30 1
    55    29    31 1
    56    32    33 2
    57    32    51 1
    58    55     3 1
@<TRIPOS>SUBSTRUCTURE
     1 FFO         1 TEMP              0 ****  ****    0 ROOT
