@<TRIPOS>MOLECULE
FFO
   57    57     1     0     0
SMALL
bcc


@<TRIPOS>ATOM
      1 N1          1.5280    0.9350   -0.7450 n2        1 FFO     -0.681900
      2 C2          2.2580   -0.2470   -1.2200 c3        1 FFO      0.513100
      3 NA2         1.4480   -1.1490   -2.0630 n3        1 FFO     -0.927800
      4 N3          2.9940   -0.9970   -0.1830 n         1 FFO     -0.549900
      5 C4          2.6230   -0.9330    1.1450 c2        1 FFO      0.396000
      6 O4          3.0210   -1.7860    1.9700 o         1 FFO     -0.387000
      7 C4A         1.8250    0.2490    1.5930 ce        1 FFO     -0.351700
      8 N5          1.5940    0.4320    2.8970 nh        1 FFO     -0.009600
      9 C6         -3.0650    1.4460    5.6710 c3        1 FFO     -0.137100
     10 C7          0.5200    3.3840    0.4380 c2        1 FFO      0.505100
     11 N8          0.5000    2.2290    0.9870 ne        1 FFO     -0.697000
     12 C8A         1.3050    1.1430    0.5220 ce        1 FFO      0.724600
     13 C9         -4.3900    2.1840    5.7200 c3        1 FFO      0.166800
     14 N10        -4.4130    3.4560    6.3740 n2        1 FFO     -0.497600
     15 C11        -2.8070    6.8480    5.3180 ce        1 FFO     -0.268200
     16 C12        -2.3820    6.4050    6.5370 cf        1 FFO      0.086000
     17 C13        -2.7870    5.2230    7.2110 cf        1 FFO     -0.335100
     18 C14        -3.5600    4.2590    6.7050 c1        1 FFO      0.415500
     19 C15        -3.5620    5.6570    3.2900 c2        1 FFO     -0.212000
     20 C16        -3.7920    6.1410    4.5110 ce        1 FFO     -0.152000
     21 O          -1.2440    8.6770    5.2540 o         1 FFO     -0.488100
     22 N          -3.0250    8.7790    3.7370 n4        1 FFO     -0.651800
     23 CA         -2.4110    9.9890    3.1130 c3        1 FFO     -0.076500
     24 CB         -1.8040    9.7350    1.7470 c3        1 FFO     -0.095400
     25 CG         -0.5490    8.9260    1.8200 cx        1 FFO      0.020100
     26 CD         -0.5270    7.5200    1.4440 c         1 FFO      0.686600
     27 OE1        -0.0510    8.4000    0.5150 os        1 FFO     -0.403900
     28 OE2        -0.6770    6.3190    1.4560 o         1 FFO     -0.537500
     29 CT         -3.5420   11.1360    2.9660 c         1 FFO      0.941600
     30 O1         -3.1770   12.1430    2.3390 o         1 FFO     -0.753300
     31 O2         -4.6380   10.8650    3.5180 o         1 FFO     -0.753300
     32 C5A         0.3370    0.7620    3.4520 c1        1 FFO      0.397500
     33 O5B        -0.1960    1.7140    3.9400 o         1 FFO     -0.421500
     34 HN21        3.0700    0.1760   -1.9100 h3        1 FFO      0.097700
     35 HN22        1.1740   -0.6750   -2.9010 hn        1 FFO      0.367800
     36 H6         -2.2930    2.0210    5.1020 hc        1 FFO      0.059700
     37 H7         -2.6750    1.2480    6.6980 hc        1 FFO      0.059700
     38 H91        -3.2220    0.4660    5.1580 hc        1 FFO      0.059700
     39 H92        -5.1540    1.5540    6.2650 h1        1 FFO      0.080200
     40 HN0        -4.7670    2.3550    4.6680 h1        1 FFO      0.080200
     41 H12        -2.4360    5.0920    8.2520 ha        1 FFO      0.175000
     42 H13        -1.6440    7.0240    7.0900 ha        1 FFO      0.156000
     43 H15        -2.5900    5.7370    2.7780 ha        1 FFO      0.132500
     44 H16        -4.3390    5.1230    2.7240 ha        1 FFO      0.132500
     45 HN         -4.7750    6.0060    5.0030 ha        1 FFO      0.145000
     46 HA         -3.9380    9.1180    4.1420 hn        1 FFO      0.470800
     47 HB1        -1.6390   10.4030    3.8200 hx        1 FFO      0.115700
     48 HB2        -1.5630   10.7540    1.3170 hc        1 FFO      0.108200
     49 HG1        -2.5450    9.2630    1.0490 hc        1 FFO      0.108200
     50 HG2         0.2580    9.3480    2.4550 h1        1 FFO      0.129700
     51 H5A         2.0590   -0.2700    3.4780 hn        1 FFO      0.298700
     52 H22         3.4400   -1.8370   -0.4870 hn        1 FFO      0.333500
     53 H23         1.1410    3.7030   -0.4210 h4        1 FFO      0.012300
     54 H24        -0.1450    4.1600    0.8710 h4        1 FFO      0.012300
     55 HA23        0.6360   -1.4910   -1.5900 hn        1 FFO      0.367800
     56 H2         -3.2480    8.0850    3.0180 hn        1 FFO      0.470800
     57 C          -2.2540    8.1140    4.8290 c         1 FFO      0.560300
@<TRIPOS>BOND
     1    1    2 1   
     2    1   12 2   
     3    2    3 1   
     4    2    4 1   
     5    2   34 1   
     6    3   35 1   
     7    3   55 1   
     8    4    5 1   
     9    4   52 1   
    10    5    6 1   
    11    5    7 2   
    12    7    8 1   
    13    7   12 1   
    14    8   32 2   
    15    8   51 1   
    16    9   13 1   
    17    9   36 1   
    18    9   37 1   
    19    9   38 1   
    20   10   11 2   
    21   10   53 1   
    22   10   54 1   
    23   11   12 1   
    24   13   14 1   
    25   13   39 1   
    26   13   40 1   
    27   14   18 2   
    28   15   16 2   
    29   15   20 1   
    30   15   57 1   
    31   16   17 1   
    32   16   42 1   
    33   17   18 2   
    34   17   41 1   
    35   19   20 2   
    36   19   43 1   
    37   19   44 1   
    38   20   45 1   
    39   21   57 2   
    40   22   23 1   
    41   22   46 1   
    42   22   56 1   
    43   22   57 1   
    44   23   24 1   
    45   23   29 1   
    46   23   47 1   
    47   24   25 1   
    48   24   48 1   
    49   24   49 1   
    50   25   26 1   
    51   25   27 1   
    52   25   50 1   
    53   26   27 1   
    54   26   28 2   
    55   29   30 1   
    56   29   31 1   
    57   32   33 2   
@<TRIPOS>SUBSTRUCTURE
     1 FFO         1 TEMP              0 ****  ****    0 ROOT
