@<TRIPOS>MOLECULE
molecule
   13    13     1     0     0
SMALL
bcc


@<TRIPOS>ATOM
      1 F1           0.0000     0.0000     0.0000 f          1 FFP      -0.120900
      2 C6           1.3400     0.0000     0.0000 ca         1 FFP       0.140400
      3 C5           2.0330     0.0000     1.2110 ca         1 FFP      -0.178000
      4 C4           3.4270    -0.0030     1.2170 ca         1 FFP      -0.084000
      5 C3           4.1290    -0.0060     0.0120 ca         1 FFP      -0.178000
      6 C2           3.4370    -0.0060    -1.2000 ca         1 FFP       0.140400
      7 F2           4.1180    -0.0070    -2.3530 f          1 FFP      -0.120900
      8 C1           2.0430    -0.0030    -1.2050 ca         1 FFP       0.022100
      9 O            1.3670    -0.0020    -2.3860 oh         1 FFP      -0.495100
     10 H5           1.4870     0.0020     2.1470 ha         1 FFP       0.153000
     11 H4           3.9640    -0.0030     2.1570 ha         1 FFP       0.146000
     12 H3           5.2130    -0.0090     0.0170 ha         1 FFP       0.153000
     13 HO           1.2100    -0.8910    -2.6590 ho         1 FFP       0.423000
@<TRIPOS>BOND
     1     1     2 1
     2     2     3 ar
     3     2     8 ar
     4     3     4 ar
     5     3    10 1
     6     4     5 ar
     7     4    11 1
     8     5     6 ar
     9     5    12 1
    10     6     7 1
    11     6     8 ar
    12     8     9 1
    13     9    13 1
@<TRIPOS>SUBSTRUCTURE
     1 FFP         1 TEMP              0 ****  ****    0 ROOT
