@<TRIPOS>MOLECULE
FFP
   13    13     1     0     0
SMALL
bcc


@<TRIPOS>ATOM
      1 F1         -0.0680    0.0680    0.0800 f         1 FFP     -0.129900
      2 C6          1.2820    0.0090    0.0600 ca        1 FFP      0.092400
      3 C5          2.0150    0.0830    1.2560 ca        1 FFP     -0.142000
      4 C4          3.4060    0.0220    1.2300 ca        1 FFP     -0.118000
      5 C3          4.0960   -0.1110    0.0290 ca        1 FFP     -0.142000
      6 C2          3.3800   -0.1860   -1.1760 ca        1 FFP      0.092400
      7 F2          4.0280   -0.3170   -2.3610 f         1 FFP     -0.129900
      8 C1          1.9680   -0.1270   -1.1710 ca        1 FFP      0.060100
      9 O           1.2100   -0.1940   -2.3120 oh        1 FFP     -0.474100
     10 H5          1.4740    0.1890    2.2080 ha        1 FFP      0.155500
     11 H4          3.9680    0.0810    2.1740 ha        1 FFP      0.146000
     12 H3          5.1940   -0.1590    0.0080 ha        1 FFP      0.155500
     13 HO          1.8150   -0.2860   -3.0660 ho        1 FFP      0.433000
@<TRIPOS>BOND
     1    1    2 1   
     2    2    3 ar  
     3    2    8 ar  
     4    3    4 ar  
     5    3   10 1   
     6    4    5 ar  
     7    4   11 1   
     8    5    6 ar  
     9    5   12 1   
    10    6    7 1   
    11    6    8 ar  
    12    8    9 1   
    13    9   13 1   
@<TRIPOS>SUBSTRUCTURE
     1 FFP         1 TEMP              0 ****  ****    0 ROOT
