@<TRIPOS>MOLECULE
FFQ
   15    14     1     0     0
SMALL
bcc


@<TRIPOS>ATOM
      1 C1          0.2020   -0.5200   -0.2120 c3        1 FFQ     -0.091400
      2 O1          2.5300   -0.8340   -0.7100 oh        1 FFQ     -0.680800
      3 P1          2.0630    0.3590    1.6070 p5        1 FFQ      1.196700
      4 C2          1.5960    0.0470   -0.1180 c3        1 FFQ     -0.046100
      5 O2          2.6420    1.7530    1.5600 o         1 FFQ     -0.942833
      6 C3         -0.6590    0.1830   -1.2340 c3        1 FFQ     -0.065100
      7 O3          0.8000    0.2400    2.4320 o         1 FFQ     -0.942833
      8 O4          3.0710   -0.7490    1.8600 o         1 FFQ     -0.942833
      9 H           0.2430   -1.6110   -0.4810 hc        1 FFQ      0.047700
     10 H2          3.0430   -1.2240    0.0260 ho        1 FFQ      0.427000
     11 H1          1.6740    1.0110   -0.6820 h1        1 FFQ      0.022700
     12 H20        -1.6850   -0.2600   -1.2700 hc        1 FFQ     -0.009967
     13 HO2        -0.7560    1.2660   -0.9800 hc        1 FFQ     -0.009967
     14 H3         -0.2120    0.1040   -2.2550 hc        1 FFQ     -0.009967
     15 H3B        -0.2730   -0.4290    0.8090 hc        1 FFQ      0.047700
@<TRIPOS>BOND
     1    1    4 1   
     2    1    6 1   
     3    1    9 1   
     4    1   15 1   
     5    2    4 1   
     6    2   10 1   
     7    3    4 1   
     8    3    5 1   
     9    3    7 1   
    10    3    8 1   
    11    4   11 1   
    12    6   12 1   
    13    6   13 1   
    14    6   14 1   
@<TRIPOS>SUBSTRUCTURE
     1 FFQ         1 TEMP              0 ****  ****    0 ROOT
