@<TRIPOS>MOLECULE
molecule
   15    14     1     0     0
SMALL
bcc


@<TRIPOS>ATOM
      1 C1           0.0000     0.0000     0.0000 c3         1 FFQ      -0.052400
      2 O1           2.0060    -1.1670    -0.6730 oh         1 FFQ      -0.623800
      3 P1           2.1370     0.0000     1.7200 p5         1 FFQ       1.041700
      4 C2           1.5300     0.0000     0.0000 c3         1 FFQ      -0.008100
      5 O2           1.6000     1.3150     2.4780 o          1 FFQ      -0.912500
      6 C3          -0.5100     0.1260    -1.4370 c3         1 FFQ      -0.091100
      7 O3           1.6440    -1.2080     2.4170 o          1 FFQ      -0.912500
      8 O4           3.7470    -0.0000     1.7200 o          1 FFQ      -0.912500
      9 H           -0.3610    -0.9260     0.4320 hc         1 FFQ       0.053700
     10 H2           2.8620    -0.9970    -1.0290 ho         1 FFQ       0.373000
     11 H1           1.8910     0.8840    -0.5110 h1         1 FFQ      -0.005300
     12 H20         -0.0290     0.9680    -1.9190 hc         1 FFQ      -0.000967
     13 HO2         -0.2810    -0.7820    -1.9820 hc         1 FFQ      -0.000967
     14 H3          -1.5830     0.2800    -1.4270 hc         1 FFQ      -0.000967
     15 H3B         -0.3610     0.8370     0.5860 hc         1 FFQ       0.053700
@<TRIPOS>BOND
     1     1     4 1
     2     1     9 1
     3     2     4 1
     4     2    10 1
     5     3     8 1
     6     3     5 1
     7     4     3 1
     8     4    11 1
     9     6     1 1
    10     6    12 1
    11     6    13 1
    12     6    14 1
    13     7     3 1
    14     1    15 1
@<TRIPOS>SUBSTRUCTURE
     1 FFQ         1 TEMP              0 ****  ****    0 ROOT
