@<TRIPOS>MOLECULE
molecule
   45    44     1     0     0
SMALL
bcc


@<TRIPOS>ATOM
      1 O3           0.0000     0.0000     0.0000 o          1 FFT      -0.906833
      2 P            1.6110     0.0000     0.0000 p5         1 FFT       1.175900
      3 O1           2.1460     0.0000     1.5180 o          1 FFT      -0.906833
      4 O2           2.1040    -1.2080    -0.6980 o          1 FFT      -0.906833
      5 O            2.1470     1.3160    -0.7580 os         1 FFT      -0.572200
      6 C14          1.9290     1.5550    -2.1500 c3         1 FFT       0.233600
      7 C13          2.5580     2.8680    -2.5390 c2         1 FFT      -0.098200
      8 C11          1.8980     3.7130    -3.2920 c2         1 FFT      -0.230400
      9 C12          2.4950     5.0570    -3.6170 c3         1 FFT      -0.033900
     10 C10          0.5410     3.3400    -3.8310 c3         1 FFT      -0.018200
     11 C9          -0.5440     3.8430    -2.8780 c3         1 FFT      -0.053200
     12 C8          -1.9000     3.4710    -3.4170 c2         1 FFT      -0.196200
     13 C6          -2.7160     2.7430    -2.6940 c2         1 FFT      -0.130400
     14 C7          -4.1170     2.4760    -3.1800 c3         1 FFT      -0.050900
     15 C5          -2.2520     2.1750    -1.3780 c3         1 FFT      -0.011200
     16 C4          -2.5760     3.1600    -0.2540 c3         1 FFT      -0.107200
     17 C3          -2.1120     2.5910     1.0620 c2         1 FFT      -0.233200
     18 C1          -2.9510     2.4900     2.0640 c2         1 FFT      -0.092400
     19 C2          -4.3410     3.0620     1.9440 c3         1 FFT      -0.066400
     20 C           -2.5270     1.8030     3.3360 c3         1 FFT      -0.066400
     21 H3           2.3770     0.7550    -2.7280 h1         1 FFT       0.021700
     22 H4           0.8650     1.5910    -2.3480 h1         1 FFT       0.021700
     23 H5           3.5330     3.1370    -2.1500 ha         1 FFT       0.113000
     24 H6           2.6020     5.6350    -2.7070 hc         1 FFT       0.015700
     25 H7           3.4680     4.9200    -4.0730 hc         1 FFT       0.015700
     26 H8           1.8450     5.5840    -4.3060 hc         1 FFT       0.015700
     27 H9           0.4720     2.2630    -3.9200 hc         1 FFT       0.036700
     28 H10          0.4030     3.7920    -4.8050 hc         1 FFT       0.036700
     29 H11         -0.4060     3.3910    -1.9030 hc         1 FFT       0.061700
     30 H12         -0.4750     4.9210    -2.7880 hc         1 FFT       0.061700
     31 H13         -2.2350     3.8790    -4.3630 ha         1 FFT       0.089000
     32 H14         -4.0980     2.2650    -4.2420 hc         1 FFT       0.025700
     33 H15         -4.5260     1.6240    -2.6500 hc         1 FFT       0.025700
     34 H16         -4.7360     3.3460    -2.9950 hc         1 FFT       0.025700
     35 H17         -1.1830     2.0070    -1.4140 hc         1 FFT       0.107700
     36 H18         -2.7590     1.2360    -1.1920 hc         1 FFT       0.107700
     37 H19         -2.0690     4.0990    -0.4400 hc         1 FFT       0.006200
     38 H20         -3.6460     3.3280    -0.2180 hc         1 FFT       0.006200
     39 H21         -2.1600     3.6590     0.8870 ha         1 FFT       0.274000
     40 H22         -4.2800     4.0980     1.6350 hc         1 FFT       0.034033
     41 H23         -4.9010     2.4980     1.2070 hc         1 FFT       0.034033
     42 H24         -4.8410     2.9990     2.9020 hc         1 FFT       0.034033
     43 H25         -2.7870     0.7530     3.2830 hc         1 FFT       0.034033
     44 H26         -1.4550     1.9030     3.4600 hc         1 FFT       0.034033
     45 H27         -3.0320     2.2590     4.1790 hc         1 FFT       0.034033
@<TRIPOS>BOND
     1     4     2 1
     2     5     6 1
     3     5     2 1
     4     7     6 1
     5     7     8 2
     6     9     8 1
     7     1     2 1
     8     2     3 1
     9     8    10 1
    10    10    11 1
    11    11    12 1
    12    12    13 2
    13    15    13 1
    14    15    16 1
    15    13    14 1
    16    17    16 1
    17    17    18 2
    18    20    18 1
    19    18    19 1
    20     6    21 1
    21     6    22 1
    22     7    23 1
    23     9    24 1
    24     9    25 1
    25     9    26 1
    26    10    27 1
    27    10    28 1
    28    11    29 1
    29    11    30 1
    30    12    31 1
    31    14    32 1
    32    14    33 1
    33    14    34 1
    34    15    35 1
    35    15    36 1
    36    16    37 1
    37    16    38 1
    38    17    39 1
    39    19    40 1
    40    19    41 1
    41    19    42 1
    42    20    43 1
    43    20    44 1
    44    20    45 1
@<TRIPOS>SUBSTRUCTURE
     1 FFT         1 TEMP              0 ****  ****    0 ROOT
