@<TRIPOS>MOLECULE
FFT
   45    44     1     0     0
SMALL
bcc


@<TRIPOS>ATOM
      1 O3          0.1300    1.0430   -0.4680 o         1 FFT     -0.932167
      2 P           1.2770    0.0660   -0.2710 p5        1 FFT      1.330900
      3 O1          1.7760   -0.0710    1.1360 o         1 FFT     -0.932167
      4 O2          1.1710   -1.1730   -1.1110 o         1 FFT     -0.932167
      5 O           2.5810    0.9060   -1.0560 os        1 FFT     -0.560200
      6 C14         2.2550    1.3810   -2.3010 c3        1 FFT      0.244600
      7 C13         2.5930    2.8410   -2.4260 c2        1 FFT     -0.099200
      8 C11         1.8920    3.7600   -3.1070 c2        1 FFT     -0.228400
      9 C12         2.3330    5.1740   -3.1910 c3        1 FFT     -0.024900
     10 C10         0.5960    3.4630   -3.7800 c3        1 FFT     -0.002200
     11 C9         -0.5390    3.4210   -2.7700 c3        1 FFT     -0.088200
     12 C8         -1.8440    3.1550   -3.4160 c2        1 FFT     -0.157200
     13 C6         -2.8530    2.4780   -2.8450 c2        1 FFT     -0.130400
     14 C7         -4.1350    2.2560   -3.5600 c3        1 FFT     -0.044900
     15 C5         -2.7580    1.8730   -1.4880 c3        1 FFT     -0.084200
     16 C4         -2.9180    2.9150   -0.3910 c3        1 FFT     -0.030200
     17 C3         -2.3130    2.4420    0.8770 c2        1 FFT     -0.119200
     18 C1         -2.8380    2.6430    2.0970 c2        1 FFT     -0.223400
     19 C2         -4.1200    3.3500    2.3310 c3        1 FFT     -0.032900
     20 C          -2.1440    2.1490    3.3110 c3        1 FFT     -0.032900
     21 H3          2.8830    0.8640   -3.0970 h1        1 FFT      0.003200
     22 H4          1.1680    1.1940   -2.5340 h1        1 FFT      0.003200
     23 H5          3.5090    3.1310   -1.8830 ha        1 FFT      0.100000
     24 H6          3.2700    5.3480   -2.6070 hc        1 FFT      0.006700
     25 H7          2.5260    5.4650   -4.2550 hc        1 FFT      0.006700
     26 H8          1.5390    5.8520   -2.7880 hc        1 FFT      0.006700
     27 H9          0.3820    4.2400   -4.5640 hc        1 FFT      0.013200
     28 H10         0.6560    2.4730   -4.3050 hc        1 FFT      0.013200
     29 H11        -0.3020    2.6350   -1.9790 hc        1 FFT      0.099700
     30 H12        -0.5960    4.4080   -2.2350 hc        1 FFT      0.099700
     31 H13        -1.9590    3.5550   -4.4380 ha        1 FFT      0.075000
     32 H14        -4.2850    1.1630   -3.7430 hc        1 FFT      0.016367
     33 H15        -4.9900    2.6240   -2.9400 hc        1 FFT      0.016367
     34 H16        -4.1620    2.7840   -4.5450 hc        1 FFT      0.016367
     35 H17        -3.5440    1.0830   -1.3640 hc        1 FFT      0.102200
     36 H18        -1.7420    1.3640   -1.3590 hc        1 FFT      0.102200
     37 H19        -2.3750    3.8520   -0.6960 hc        1 FFT      0.018200
     38 H20        -4.0020    3.1800   -0.2670 hc        1 FFT      0.018200
     39 H21        -1.3370    1.9020    0.7310 ha        1 FFT      0.253000
     40 H22        -4.1070    4.3650    1.8590 hc        1 FFT      0.018533
     41 H23        -4.3190    3.4790    3.4240 hc        1 FFT      0.018533
     42 H24        -4.9740    2.7790    1.8880 hc        1 FFT      0.018533
     43 H25        -1.8930    3.0020    3.9910 hc        1 FFT      0.018533
     44 H26        -1.1960    1.6160    3.0430 hc        1 FFT      0.018533
     45 H27        -2.8030    1.4430    3.8760 hc        1 FFT      0.018533
@<TRIPOS>BOND
     1    1    2 1   
     2    2    3 1   
     3    2    4 1   
     4    2    5 1   
     5    5    6 1   
     6    6    7 1   
     7    6   21 1   
     8    6   22 1   
     9    7    8 2   
    10    7   23 1   
    11    8    9 1   
    12    8   10 1   
    13    9   24 1   
    14    9   25 1   
    15    9   26 1   
    16   10   11 1   
    17   10   27 1   
    18   10   28 1   
    19   11   12 1   
    20   11   29 1   
    21   11   30 1   
    22   12   13 2   
    23   12   31 1   
    24   13   14 1   
    25   13   15 1   
    26   14   32 1   
    27   14   33 1   
    28   14   34 1   
    29   15   16 1   
    30   15   35 1   
    31   15   36 1   
    32   16   17 1   
    33   16   37 1   
    34   16   38 1   
    35   17   18 2   
    36   17   39 1   
    37   18   19 1   
    38   18   20 1   
    39   19   40 1   
    40   19   41 1   
    41   19   42 1   
    42   20   43 1   
    43   20   44 1   
    44   20   45 1   
@<TRIPOS>SUBSTRUCTURE
     1 FFT         1 TEMP              0 ****  ****    0 ROOT
