@<TRIPOS>MOLECULE
FFV
   43    46     1     0     0
SMALL
bcc


@<TRIPOS>ATOM
      1 N1           0.0000     0.0000     0.0000 nb         1 FFV      -0.777000
      2 N3          -0.1180    -0.0000     2.3230 nb         1 FFV      -0.750000
      3 C4          -2.8330    -0.1190     2.2390 ca         1 FFV       0.008600
      4 C5          -4.0540     0.5330     2.3450 ca         1 FFV      -0.118000
      5 C6          -4.8020     0.4160     3.5010 ca         1 FFV      -0.104000
      6 C7          -4.3330    -0.3520     4.5540 ca         1 FFV       0.085900
      7 C8          -3.1150    -1.0040     4.4510 ca         1 FFV      -0.052600
      8 C10          1.2180    -0.0000     2.4310 ca         1 FFV       0.484600
      9 C13          3.9880    -0.0010     2.5650 ca         1 FFV      -0.139000
     10 C15          1.9980     0.0000     1.2470 ca         1 FFV      -0.359600
     11 C17          1.6400     0.7000    -4.9630 cx         1 FFV      -0.069900
     12 N            2.0310     0.0000    -1.1840 nu         1 FFV      -0.471900
     13 C            0.9590    -1.4380    -2.8470 c3         1 FFV      -0.020100
     14 C1           1.3170    -0.0000    -2.4630 c3         1 FFV       0.169500
     15 C11          1.8620    -0.0010     3.6750 ca         1 FFV      -0.179300
     16 C12          3.2250    -0.0010     3.7300 ca         1 FFV      -0.055000
     17 C14          3.3930    -0.0000     1.3380 ca         1 FFV      -0.049000
     18 C16          2.2100     0.6090    -3.5460 cx         1 FFV      -0.139700
     19 C18          1.7970     1.9680    -4.1210 cx         1 FFV      -0.069900
     20 C2           1.3250     0.0000     0.0000 ca         1 FFV       0.601200
     21 C3          -0.6930    -0.0010     1.1360 ca         1 FFV       0.749900
     22 C9          -2.3670    -0.8930     3.2940 ca         1 FFV      -0.085000
     23 F           -5.0660    -0.4660     5.6840 f          1 FFV      -0.124900
     24 N2          -2.0750    -0.0000     1.0680 nu         1 FFV      -0.288300
     25 Cl          -2.5330    -1.9710     5.7690 cl         1 FFV      -0.001400
     26 H1          -4.4200     1.1360     1.5220 ha         1 FFV       0.111000
     27 H2          -5.7540     0.9240     3.5840 ha         1 FFV       0.119000
     28 H3           5.0690    -0.0010     2.6350 ha         1 FFV       0.104000
     29 H4           2.3580     0.5800    -5.7650 hc         1 FFV       0.047950
     30 H5           0.6240     0.3410    -5.0820 hc         1 FFV       0.047950
     31 H6           3.0320    -0.0300    -1.1700 hn         1 FFV       0.301800
     32 H7           1.4570    -1.6980    -3.7730 hc         1 FFV       0.013700
     33 H8          -0.1130    -1.5200    -2.9780 hc         1 FFV       0.013700
     34 H9           1.2800    -2.1120    -2.0630 hc         1 FFV       0.013700
     35 H10          0.4100     0.5850    -2.3700 h1         1 FFV       0.059700
     36 H11          1.2800    -0.0010     4.5890 ha         1 FFV       0.122000
     37 H12          3.7210    -0.0010     4.6930 ha         1 FFV       0.101000
     38 H13          3.9970    -0.0000     0.4390 ha         1 FFV       0.096000
     39 H14          3.2790     0.4440    -3.4970 hc         1 FFV       0.059700
     40 H15          2.6120     2.6210    -4.4070 hc         1 FFV       0.047950
     41 H16          0.8780     2.3830    -3.7250 hc         1 FFV       0.047950
     42 H17         -1.4140    -1.4030     3.2130 ha         1 FFV       0.154000
     43 H18         -2.5320     0.0670     0.1810 hn         1 FFV       0.291800
@<TRIPOS>BOND
     1     1    20 ar  
     2     1    21 ar  
     3     2     8 ar  
     4     2    21 ar  
     5     3     4 ar  
     6     3    22 ar  
     7     3    24 1   
     8     4     5 ar  
     9     4    26 1   
    10     5     6 ar  
    11     5    27 1   
    12     6     7 ar  
    13     6    23 1   
    14     7    22 ar  
    15     7    25 1   
    16     8    10 ar  
    17     8    15 ar  
    18     9    16 ar  
    19     9    17 ar  
    20     9    28 1   
    21    10    17 ar  
    22    10    20 ar  
    23    11    18 1   
    24    11    19 1   
    25    11    29 1   
    26    11    30 1   
    27    12    14 1   
    28    12    20 1   
    29    12    31 1   
    30    13    14 1   
    31    13    32 1   
    32    13    33 1   
    33    13    34 1   
    34    14    18 1   
    35    14    35 1   
    36    15    16 ar  
    37    15    36 1   
    38    16    37 1   
    39    17    38 1   
    40    18    19 1   
    41    18    39 1   
    42    19    40 1   
    43    19    41 1   
    44    21    24 1   
    45    22    42 1   
    46    24    43 1   
@<TRIPOS>SUBSTRUCTURE
     1 FFV         1 TEMP              0 ****  ****    0 ROOT
