@<TRIPOS>MOLECULE
molecule
   43    46     1     0     0
SMALL
bcc


@<TRIPOS>ATOM
      1 N1           0.0000     0.0000     0.0000 nb         1 FFV      -0.877000
      2 N3          -0.1180    -0.0000     2.3230 nb         1 FFV      -0.836000
      3 C4          -2.8330    -0.1190     2.2390 ca         1 FFV       0.163600
      4 C5          -4.0540     0.5330     2.3450 ca         1 FFV      -0.145000
      5 C6          -4.8020     0.4160     3.5010 ca         1 FFV      -0.142000
      6 C7          -4.3330    -0.3520     4.5540 ca         1 FFV       0.115900
      7 C8          -3.1150    -1.0040     4.4510 ca         1 FFV       0.002400
      8 C10          1.2180    -0.0000     2.4310 ca         1 FFV       0.514600
      9 C13          3.9880    -0.0010     2.5650 ca         1 FFV      -0.163000
     10 C15          1.9980     0.0000     1.2470 ca         1 FFV      -0.359600
     11 C17          1.6400     0.7000    -4.9630 cx         1 FFV      -0.128900
     12 N            2.0310     0.0000    -1.1840 nu         1 FFV      -0.888900
     13 C            0.9590    -1.4380    -2.8470 c3         1 FFV      -0.108100
     14 C1           1.3170    -0.0000    -2.4630 c3         1 FFV       0.273500
     15 C11          1.8620    -0.0010     3.6750 ca         1 FFV      -0.197300
     16 C12          3.2250    -0.0010     3.7300 ca         1 FFV      -0.085000
     17 C14          3.3930    -0.0000     1.3380 ca         1 FFV      -0.076000
     18 C16          2.2100     0.6090    -3.5460 cx         1 FFV      -0.161700
     19 C18          1.7970     1.9680    -4.1210 cx         1 FFV      -0.128900
     20 C2           1.3250     0.0000     0.0000 ca         1 FFV       0.784200
     21 C3          -0.6930    -0.0010     1.1360 ca         1 FFV       0.977900
     22 C9          -2.3670    -0.8930     3.2940 ca         1 FFV      -0.097000
     23 F           -5.0660    -0.4660     5.6840 f          1 FFV      -0.131900
     24 N2          -2.0750    -0.0000     1.0680 nu         1 FFV      -0.754300
     25 Cl          -2.5330    -1.9710     5.7690 cl         1 FFV      -0.088400
     26 H1          -4.4200     1.1360     1.5220 ha         1 FFV       0.139000
     27 H2          -5.7540     0.9240     3.5840 ha         1 FFV       0.151000
     28 H3           5.0690    -0.0010     2.6350 ha         1 FFV       0.130000
     29 H4           2.3580     0.5800    -5.7650 hc         1 FFV       0.077700
     30 H5           0.6240     0.3410    -5.0820 hc         1 FFV       0.077700
     31 H6           3.0320    -0.0300    -1.1700 hn         1 FFV       0.452800
     32 H7           1.4570    -1.6980    -3.7730 hc         1 FFV       0.044367
     33 H8          -0.1130    -1.5200    -2.9780 hc         1 FFV       0.044367
     34 H9           1.2800    -2.1120    -2.0630 hc         1 FFV       0.044367
     35 H10          0.4100     0.5850    -2.3700 h1         1 FFV       0.083700
     36 H11          1.2800    -0.0010     4.5890 ha         1 FFV       0.153000
     37 H12          3.7210    -0.0010     4.6930 ha         1 FFV       0.134000
     38 H13          3.9970    -0.0000     0.4390 ha         1 FFV       0.119000
     39 H14          3.2790     0.4440    -3.4970 hc         1 FFV       0.080700
     40 H15          2.6120     2.6210    -4.4070 hc         1 FFV       0.077700
     41 H16          0.8780     2.3830    -3.7250 hc         1 FFV       0.077700
     42 H17         -1.4140    -1.4030     3.2130 ha         1 FFV       0.181000
     43 H18         -2.5320     0.0670     0.1810 hn         1 FFV       0.465800
@<TRIPOS>BOND
     1    25     7 1
     2     7    22 ar
     3     7     6 ar
     4    22     3 ar
     5    23     6 1
     6     6     5 ar
     7     3    24 1
     8     3     4 ar
     9    24    21 1
    10     2    21 ar
    11     2     8 ar
    12    15     8 ar
    13    15    16 ar
    14    21     1 ar
    15     5     4 ar
    16     8    10 ar
    17    16     9 ar
    18     1    20 ar
    19    10    20 ar
    20    10    17 ar
    21     9    17 ar
    22    20    12 1
    23    12    14 1
    24    14    13 1
    25    14    18 1
    26    19    18 1
    27    19    11 1
    28    18    11 1
    29     4    26 1
    30     5    27 1
    31     9    28 1
    32    11    29 1
    33    11    30 1
    34    12    31 1
    35    13    32 1
    36    13    33 1
    37    13    34 1
    38    14    35 1
    39    15    36 1
    40    16    37 1
    41    17    38 1
    42    18    39 1
    43    19    40 1
    44    19    41 1
    45    22    42 1
    46    24    43 1
@<TRIPOS>SUBSTRUCTURE
     1 FFV         1 TEMP              0 ****  ****    0 ROOT
