@<TRIPOS>MOLECULE
molecule
   19    19     1     0     0
SMALL
bcc


@<TRIPOS>ATOM
      1 F1           0.0000     0.0000     0.0000 f          1 FFX      -0.207300
      2 C1           1.3990     0.0000     0.0000 c3         1 FFX       0.378400
      3 C2           1.9100     0.0000     1.4420 c3         1 FFX       0.077100
      4 O2           1.4830     1.1950     2.1000 oh         1 FFX      -0.589800
      5 C3           3.4410    -0.0600     1.4340 c3         1 FFX       0.139100
      6 O3           3.9240    -0.1340     2.7760 oh         1 FFX      -0.589800
      7 C4           3.8870    -1.3030     0.6590 c3         1 FFX       0.077100
      8 O4           5.3140    -1.3310     0.5820 oh         1 FFX      -0.589800
      9 C5           3.3000    -1.2530    -0.7540 c3         1 FFX       0.378400
     10 F5           3.6580    -2.4130    -1.4490 f          1 FFX      -0.207300
     11 O5           1.8760    -1.1670    -0.6730 os         1 FFX      -0.459600
     12 H1           1.7640     0.8830    -0.5100 h2         1 FFX       0.062700
     13 H2           1.5190    -0.8650     1.9630 h1         1 FFX       0.072700
     14 HO2          0.8290     0.9830     2.7450 ho         1 FFX       0.421000
     15 H3           3.8340     0.8270     0.9500 h1         1 FFX       0.059700
     16 HO3          4.4810     0.6070     2.9510 ho         1 FFX       0.419000
     17 H4           3.5300    -2.1910     1.1660 h1         1 FFX       0.072700
     18 HO4          5.6270    -2.1810     0.8440 ho         1 FFX       0.421000
     19 H5           3.6840    -0.3830    -1.2720 h2         1 FFX       0.062700
@<TRIPOS>BOND
     1     1     2 1
     2     2     3 1
     3     2    11 1
     4     3     4 1
     5     3     5 1
     6     5     6 1
     7     5     7 1
     8     7     8 1
     9     7     9 1
    10     9    10 1
    11     9    11 1
    12     2    12 1
    13     3    13 1
    14     4    14 1
    15     5    15 1
    16     6    16 1
    17     7    17 1
    18     8    18 1
    19     9    19 1
@<TRIPOS>SUBSTRUCTURE
     1 FFX         1 TEMP              0 ****  ****    0 ROOT
