@<TRIPOS>MOLECULE
FFX
   19    19     1     0     0
SMALL
bcc


@<TRIPOS>ATOM
      1 F1          0.0300   -0.3430    0.0230 f         1 FFX     -0.212800
      2 C1          1.3740   -0.0750    0.0490 c3        1 FFX      0.350900
      3 C2          1.9070    0.0700    1.5030 c3        1 FFX      0.069100
      4 O2          1.5620    1.3650    1.9580 oh        1 FFX     -0.586300
      5 C3          3.4400   -0.0170    1.5310 c3        1 FFX      0.155100
      6 O3          3.8100   -0.1530    2.8910 oh        1 FFX     -0.582800
      7 C4          3.9200   -1.2500    0.7470 c3        1 FFX      0.069100
      8 O4          5.3290   -1.1420    0.6690 oh        1 FFX     -0.586300
      9 C5          3.3070   -1.2520   -0.6750 c3        1 FFX      0.350900
     10 F5          3.5240   -2.4340   -1.3320 f         1 FFX     -0.212800
     11 O5          1.8860   -1.2320   -0.6040 os        1 FFX     -0.451600
     12 H1          1.6050    0.8550   -0.5480 h2        1 FFX      0.069700
     13 H2          1.4670   -0.7310    2.1560 h1        1 FFX      0.082200
     14 HO2         0.6710    1.3040    2.3250 ho        1 FFX      0.419500
     15 H3          3.8900    0.9180    1.0970 h1        1 FFX      0.071700
     16 HO3         4.7770   -0.1380    2.9120 ho        1 FFX      0.422000
     17 H4          3.6240   -2.1910    1.2880 h1        1 FFX      0.082200
     18 HO4         5.6480   -1.9570    0.2600 ho        1 FFX      0.419500
     19 H5          3.6950   -0.3840   -1.2820 h2        1 FFX      0.069700
@<TRIPOS>BOND
     1    1    2 1   
     2    2    3 1   
     3    2   11 1   
     4    2   12 1   
     5    3    4 1   
     6    3    5 1   
     7    3   13 1   
     8    4   14 1   
     9    5    6 1   
    10    5    7 1   
    11    5   15 1   
    12    6   16 1   
    13    7    8 1   
    14    7    9 1   
    15    7   17 1   
    16    8   18 1   
    17    9   10 1   
    18    9   11 1   
    19    9   19 1   
@<TRIPOS>SUBSTRUCTURE
     1 FFX         1 TEMP              0 ****  ****    0 ROOT
