@<TRIPOS>MOLECULE
FFY
   56    60     1     0     0
SMALL
bcc


@<TRIPOS>ATOM
      1 N1           0.0000     0.0000     0.0000 nb         1 FFY      -0.775000
      2 N3          -0.1180    -0.0030     2.3220 nb         1 FFY      -0.734000
      3 C4          -2.7160     0.1170    -0.1720 ca         1 FFY       0.014600
      4 C5          -2.1510     0.8920    -1.1750 ca         1 FFY      -0.096000
      5 C6          -2.7800     1.0050    -2.3990 ca         1 FFY      -0.109000
      6 C7          -3.9750     0.3440    -2.6270 ca         1 FFY       0.083900
      7 C8          -4.5430    -0.4310    -1.6270 ca         1 FFY      -0.051600
      8 C10          1.2160    -0.0020     2.4300 ca         1 FFY       0.493600
      9 C13          3.9990    -0.0010     2.5620 ca         1 FFY      -0.137000
     10 C15          1.9970     0.0000     1.2500 ca         1 FFY      -0.355600
     11 C17          0.4860     1.1130     5.3070 c2         1 FFY      -0.145200
     12 C20          0.9780    -1.2780     5.7240 c3         1 FFY       0.039800
     13 C21          2.2130     0.6120    -3.5440 cx         1 FFY      -0.139700
     14 C22          1.6450     0.7040    -4.9610 cx         1 FFY      -0.069900
     15 N            2.0320     0.0020    -1.1830 nu         1 FFY      -0.469900
     16 C            0.9620    -1.4350    -2.8470 c3         1 FFY      -0.022100
     17 C1           1.3200     0.0020    -2.4620 c3         1 FFY       0.164500
     18 C11          1.8640    -0.0020     3.6850 ca         1 FFY      -0.122100
     19 C12          3.2520    -0.0030     3.7310 ca         1 FFY      -0.053000
     20 C14          3.3930     0.0000     1.3380 ca         1 FFY      -0.053000
     21 C16          1.0760    -0.0040     4.9330 ce         1 FFY      -0.052400
     22 C18         -0.3280     1.2250     6.5640 c3         1 FFY       0.200000
     23 C19          0.4980    -0.9650     7.1450 c3         1 FFY       0.143800
     24 C2           1.3250     0.0000     0.0000 ca         1 FFY       0.595200
     25 C23          1.8020     1.9700    -4.1170 cx         1 FFY      -0.069900
     26 C3          -0.6930    -0.0020     1.1340 ca         1 FFY       0.746900
     27 C9          -3.9150    -0.5460    -0.4010 ca         1 FFY      -0.118000
     28 F           -4.5900     0.4550    -3.8240 f          1 FFY      -0.123900
     29 N2          -2.0760    -0.0020     1.0660 nu         1 FFY      -0.289300
     30 N4          -0.6960    -0.1090     7.0530 n7         1 FFY      -0.575200
     31 Cl          -6.0410    -1.2590    -1.9160 cl         1 FFY       0.000600
     32 H1          -1.2160     1.4100    -0.9970 ha         1 FFY       0.141000
     33 H2          -2.3390     1.6100    -3.1810 ha         1 FFY       0.117000
     34 H3           5.0800    -0.0010     2.6200 ha         1 FFY       0.104000
     35 H4           0.5940     1.9900     4.6810 ha         1 FFY       0.106000
     36 H5           1.9530    -1.7480     5.7700 hc         1 FFY       0.025200
     37 H6           0.2720    -1.9450     5.2450 hc         1 FFY       0.025200
     38 H7           3.2830     0.4470    -3.4940 hc         1 FFY       0.059700
     39 H8           0.6300     0.3450    -5.0820 hc         1 FFY       0.048450
     40 H9           2.3650     0.5840    -5.7620 hc         1 FFY       0.048450
     41 H10          3.0320    -0.0420    -1.1670 hn         1 FFY       0.301800
     42 H11         -0.1100    -1.5180    -2.9780 hc         1 FFY       0.015700
     43 H12          1.2840    -2.1100    -2.0640 hc         1 FFY       0.015700
     44 H13          1.4590    -1.6950    -3.7740 hc         1 FFY       0.015700
     45 H14          0.4130     0.5880    -2.3700 h1         1 FFY       0.061700
     46 H15          3.7570    -0.0040     4.6890 ha         1 FFY       0.106000
     47 H16          3.9930     0.0010     0.4360 ha         1 FFY       0.096000
     48 H17         -1.2280     1.7900     6.3570 h1         1 FFY       0.008200
     49 H18          0.2550     1.7350     7.3220 h1         1 FFY       0.008200
     50 H19          0.2460    -1.8870     7.6540 h1         1 FFY       0.004700
     51 H20          1.2790    -0.4440     7.6860 h1         1 FFY       0.004700
     52 H21          0.8820     2.3850    -3.7220 hc         1 FFY       0.048450
     53 H22          2.6170     2.6240    -4.4020 hc         1 FFY       0.048450
     54 H23         -4.3580    -1.1520     0.3800 ha         1 FFY       0.123000
     55 H24         -2.6180    -0.0750     1.9050 hn         1 FFY       0.299800
     56 H25         -1.1190    -0.0280     7.9570 hn         1 FFY       0.247800
@<TRIPOS>BOND
     1     1    24 ar  
     2     1    26 ar  
     3     2     8 ar  
     4     2    26 ar  
     5     3     4 ar  
     6     3    27 ar  
     7     3    29 1   
     8     4     5 ar  
     9     4    32 1   
    10     5     6 ar  
    11     5    33 1   
    12     6     7 ar  
    13     6    28 1   
    14     7    27 ar  
    15     7    31 1   
    16     8    10 ar  
    17     8    18 ar  
    18     9    19 ar  
    19     9    20 ar  
    20     9    34 1   
    21    10    20 ar  
    22    10    24 ar  
    23    11    21 2   
    24    11    22 1   
    25    11    35 1   
    26    12    21 1   
    27    12    23 1   
    28    12    36 1   
    29    12    37 1   
    30    13    14 1   
    31    13    17 1   
    32    13    25 1   
    33    13    38 1   
    34    14    25 1   
    35    14    39 1   
    36    14    40 1   
    37    15    17 1   
    38    15    24 1   
    39    15    41 1   
    40    16    17 1   
    41    16    42 1   
    42    16    43 1   
    43    16    44 1   
    44    17    45 1   
    45    18    19 ar  
    46    18    21 1   
    47    19    46 1   
    48    20    47 1   
    49    22    30 1   
    50    22    48 1   
    51    22    49 1   
    52    23    30 1   
    53    23    50 1   
    54    23    51 1   
    55    25    52 1   
    56    25    53 1   
    57    26    29 1   
    58    27    54 1   
    59    29    55 1   
    60    30    56 1   
@<TRIPOS>SUBSTRUCTURE
     1 FFY         1 TEMP              0 ****  ****    0 ROOT
