@<TRIPOS>MOLECULE
molecule
   56    60     1     0     0
SMALL
bcc


@<TRIPOS>ATOM
      1 N1           0.0000     0.0000     0.0000 nb         1 FFY      -0.877000
      2 N3          -0.1180    -0.0030     2.3220 nb         1 FFY      -0.821000
      3 C4          -2.7160     0.1170    -0.1720 ca         1 FFY       0.167600
      4 C5          -2.1510     0.8920    -1.1750 ca         1 FFY      -0.108000
      5 C6          -2.7800     1.0050    -2.3990 ca         1 FFY      -0.150000
      6 C7          -3.9750     0.3440    -2.6270 ca         1 FFY       0.114900
      7 C8          -4.5430    -0.4310    -1.6270 ca         1 FFY       0.005400
      8 C10          1.2160    -0.0020     2.4300 ca         1 FFY       0.524600
      9 C13          3.9990    -0.0010     2.5620 ca         1 FFY      -0.162000
     10 C15          1.9970     0.0000     1.2500 ca         1 FFY      -0.357600
     11 C17          0.4860     1.1130     5.3070 c2         1 FFY      -0.151200
     12 C20          0.9780    -1.2780     5.7240 c3         1 FFY      -0.026200
     13 C21          2.2130     0.6120    -3.5440 cx         1 FFY      -0.160700
     14 C22          1.6450     0.7040    -4.9610 cx         1 FFY      -0.128900
     15 N            2.0320     0.0020    -1.1830 nu         1 FFY      -0.887900
     16 C            0.9620    -1.4350    -2.8470 c3         1 FFY      -0.109100
     17 C1           1.3200     0.0020    -2.4620 c3         1 FFY       0.273500
     18 C11          1.8640    -0.0020     3.6850 ca         1 FFY      -0.123100
     19 C12          3.2520    -0.0030     3.7310 ca         1 FFY      -0.079000
     20 C14          3.3930     0.0000     1.3380 ca         1 FFY      -0.077000
     21 C16          1.0760    -0.0040     4.9330 ce         1 FFY      -0.048400
     22 C18         -0.3280     1.2250     6.5640 c3         1 FFY       0.195000
     23 C19          0.4980    -0.9650     7.1450 c3         1 FFY       0.153800
     24 C2           1.3250     0.0000     0.0000 ca         1 FFY       0.778200
     25 C23          1.8020     1.9700    -4.1170 cx         1 FFY      -0.128900
     26 C3          -0.6930    -0.0020     1.1340 ca         1 FFY       0.976900
     27 C9          -3.9150    -0.5460    -0.4010 ca         1 FFY      -0.141000
     28 F           -4.5900     0.4550    -3.8240 f          1 FFY      -0.131900
     29 N2          -2.0760    -0.0020     1.0660 nu         1 FFY      -0.753300
     30 N4          -0.6960    -0.1090     7.0530 n7         1 FFY      -0.809200
     31 Cl          -6.0410    -1.2590    -1.9160 cl         1 FFY      -0.087400
     32 H1          -1.2160     1.4100    -0.9970 ha         1 FFY       0.168000
     33 H2          -2.3390     1.6100    -3.1810 ha         1 FFY       0.148000
     34 H3           5.0800    -0.0010     2.6200 ha         1 FFY       0.131000
     35 H4           0.5940     1.9900     4.6810 ha         1 FFY       0.130000
     36 H5           1.9530    -1.7480     5.7700 hc         1 FFY       0.057200
     37 H6           0.2720    -1.9450     5.2450 hc         1 FFY       0.057200
     38 H7           3.2830     0.4470    -3.4940 hc         1 FFY       0.080700
     39 H8           0.6300     0.3450    -5.0820 hc         1 FFY       0.077200
     40 H9           2.3650     0.5840    -5.7620 hc         1 FFY       0.077200
     41 H10          3.0320    -0.0420    -1.1670 hn         1 FFY       0.452800
     42 H11         -0.1100    -1.5180    -2.9780 hc         1 FFY       0.046033
     43 H12          1.2840    -2.1100    -2.0640 hc         1 FFY       0.046033
     44 H13          1.4590    -1.6950    -3.7740 hc         1 FFY       0.046033
     45 H14          0.4130     0.5880    -2.3700 h1         1 FFY       0.081700
     46 H15          3.7570    -0.0040     4.6890 ha         1 FFY       0.137000
     47 H16          3.9930     0.0010     0.4360 ha         1 FFY       0.119000
     48 H17         -1.2280     1.7900     6.3570 h1         1 FFY       0.038700
     49 H18          0.2550     1.7350     7.3220 h1         1 FFY       0.038700
     50 H19          0.2460    -1.8870     7.6540 h1         1 FFY       0.031700
     51 H20          1.2790    -0.4440     7.6860 h1         1 FFY       0.031700
     52 H21          0.8820     2.3850    -3.7220 hc         1 FFY       0.077200
     53 H22          2.6170     2.6240    -4.4020 hc         1 FFY       0.077200
     54 H23         -4.3580    -1.1520     0.3800 ha         1 FFY       0.153000
     55 H24         -2.6180    -0.0750     1.9050 hn         1 FFY       0.474800
     56 H25         -1.1190    -0.0280     7.9570 hn         1 FFY       0.349800
@<TRIPOS>BOND
     1    30    23 1
     2    30    22 1
     3    31     7 1
     4    23    12 1
     5    22    11 1
     6    12    21 1
     7     7    27 ar
     8     7     6 ar
     9    27     3 ar
    10    11    21 2
    11    21    18 1
    12    28     6 1
    13     6     5 ar
    14    29     3 1
    15    29    26 1
    16     3     4 ar
    17     2    26 ar
    18     2     8 ar
    19    18     8 ar
    20    18    19 ar
    21    26     1 ar
    22     5     4 ar
    23     8    10 ar
    24    19     9 ar
    25     1    24 ar
    26    10    24 ar
    27    10    20 ar
    28     9    20 ar
    29    24    15 1
    30    15    17 1
    31    17    16 1
    32    17    13 1
    33    25    13 1
    34    25    14 1
    35    13    14 1
    36     4    32 1
    37     5    33 1
    38     9    34 1
    39    11    35 1
    40    12    36 1
    41    12    37 1
    42    13    38 1
    43    14    39 1
    44    14    40 1
    45    15    41 1
    46    16    42 1
    47    16    43 1
    48    16    44 1
    49    17    45 1
    50    19    46 1
    51    20    47 1
    52    22    48 1
    53    22    49 1
    54    23    50 1
    55    23    51 1
    56    25    52 1
    57    25    53 1
    58    27    54 1
    59    29    55 1
    60    30    56 1
@<TRIPOS>SUBSTRUCTURE
     1 FFY         1 TEMP              0 ****  ****    0 ROOT
