@<TRIPOS>MOLECULE
molecule
   39    41     1     0     0
SMALL
bcc


@<TRIPOS>ATOM
      1 CAA          0.0000     0.0000     0.0000 c3         1 FG2       0.129700
      2 OAC          7.7560    -0.0070     4.5830 o          1 FG2      -0.548100
      3 OAD          7.5040     0.0090     8.7410 o          1 FG2      -0.609300
      4 OAE          8.7750    -1.0390     6.8600 o          1 FG2      -0.609300
      5 CAF         10.7880     2.7720     6.9680 ca         1 FG2      -0.107000
      6 CAG         10.1440     1.5660     7.1970 ca         1 FG2      -0.142300
      7 CAH          1.2830     0.0000     2.3780 ca         1 FG2      -0.174000
      8 CAI          1.8910    -0.0060     3.6130 ca         1 FG2      -0.114000
      9 CAJ          8.6450     3.7430     6.5570 ca         1 FG2       0.403200
     10 CAK          3.4230    -0.0000     1.2800 ca         1 FG2      -0.107000
     11 CAL          5.4130    -0.0000     2.9310 cc         1 FG2      -0.097200
     12 NAM          8.0670     2.5820     6.7880 nb         1 FG2      -0.624000
     13 NAN          6.5650    -0.0160     6.4580 ns         1 FG2      -0.643300
     14 NAO          4.1510    -0.0080     4.7720 na         1 FG2      -0.175400
     15 OAP          1.4290     0.0000     0.0000 os         1 FG2      -0.329900
     16 CAQ          6.6620    -0.0100     5.1140 c          1 FG2       0.721300
     17 CAR         10.0180     3.8790     6.6450 ca         1 FG2      -0.152600
     18 CAS          2.0460     0.0000     1.2130 ca         1 FG2       0.108100
     19 CAT          8.7660     1.5070     7.0970 ca         1 FG2       0.203200
     20 CAU          5.4450    -0.0060     4.2890 cd         1 FG2      -0.139300
     21 CAV          4.0560     0.0010     2.5290 ca         1 FG2      -0.086800
     22 CAW          3.2800    -0.0040     3.7050 ca         1 FG2      -0.051200
     23 SAX          7.9370    -0.0190     7.3870 sy         1 FG2       1.356500
     24 HAA         -0.3610     0.8850     0.5110 h1         1 FG2       0.040033
     25 HAAA        -0.3610    -0.8840     0.5110 h1         1 FG2       0.040033
     26 HAAB        -0.3610    -0.0000    -1.0210 h1         1 FG2       0.040033
     27 HAB         10.4380     5.5460     5.3870 hc         1 FG2       0.052367
     28 HABA        11.7440     5.1190     6.5020 hc         1 FG2       0.052367
     29 HABB        10.2980     5.9400     7.1060 hc         1 FG2       0.052367
     30 HAF         11.8660     2.8480     7.0390 ha         1 FG2       0.148000
     31 HAG         10.7140     0.6800     7.4520 ha         1 FG2       0.157000
     32 HAH          0.2020     0.0000     2.3110 ha         1 FG2       0.139000
     33 HAI          1.2890    -0.0060     4.5130 ha         1 FG2       0.129000
     34 HAJ          8.0370     4.6040     6.3060 h4         1 FG2       0.030100
     35 HAK          4.0120    -0.0000     0.3710 ha         1 FG2       0.150000
     36 HAL          6.2730     0.0020     2.2720 ha         1 FG2       0.174000
     37 HNAN         5.6650    -0.0580     6.8940 hn         1 FG2       0.342500
     38 HNAO         3.8890    -0.0120     5.7380 hn         1 FG2       0.295700
     39 CAB         10.6700     5.2150     6.3920 c3         1 FG2      -0.053800
@<TRIPOS>BOND
     1     1    15 1
     2     1    24 1
     3     1    25 1
     4     1    26 1
     5    17    39 1
     6    39    27 1
     7    39    28 1
     8    39    29 1
     9    16     2 2
    10     3    23 2
    11     4    23 2
    12     6     5 ar
    13     5    17 ar
    14     5    30 1
    15     6    19 ar
    16     6    31 1
    17    18     7 ar
    18     8     7 ar
    19     7    32 1
    20    22     8 ar
    21     8    33 1
    22    17     9 ar
    23    12     9 ar
    24     9    34 1
    25    21    10 ar
    26    10    18 ar
    27    10    35 1
    28    20    11 2
    29    11    21 1
    30    11    36 1
    31    19    12 ar
    32    23    13 1
    33    13    16 1
    34    13    37 1
    35    20    14 1
    36    14    22 1
    37    18    15 1
    38    16    20 1
    39    23    19 1
    40    21    22 ar
    41    14    38 1
@<TRIPOS>SUBSTRUCTURE
     1 FG2         1 TEMP              0 ****  ****    0 ROOT
