@<TRIPOS>MOLECULE
FG2
   39    41     1     0     0
SMALL
bcc


@<TRIPOS>ATOM
      1 CAA          0.0000     0.0000     0.0000 c3         1 FG2       0.244700
      2 OAC          7.7560    -0.0070     4.5830 o          1 FG2      -0.591100
      3 OAD          7.5040     0.0090     8.7410 o          1 FG2      -0.567300
      4 OAE          8.7750    -1.0390     6.8600 o          1 FG2      -0.567300
      5 CAF         10.7880     2.7720     6.9680 ca         1 FG2      -0.092000
      6 CAG         10.1440     1.5660     7.1970 ca         1 FG2      -0.094300
      7 CAH          1.2830     0.0000     2.3780 ca         1 FG2      -0.167000
      8 CAI          1.8910    -0.0060     3.6130 ca         1 FG2      -0.067000
      9 CAJ          8.6450     3.7430     6.5570 ca         1 FG2       0.380200
     10 CAK          3.4230    -0.0000     1.2800 ca         1 FG2      -0.083000
     11 CAL          5.4130    -0.0000     2.9310 cc         1 FG2      -0.064200
     12 NAM          8.0670     2.5820     6.7880 nb         1 FG2      -0.517000
     13 NAN          6.5650    -0.0160     6.4580 ns         1 FG2      -0.291300
     14 NAO          4.1510    -0.0080     4.7720 na         1 FG2       0.369600
     15 OAP          1.4290     0.0000     0.0000 os         1 FG2      -0.308900
     16 CAQ          6.6620    -0.0100     5.1140 c          1 FG2       0.696300
     17 CAR         10.0180     3.8790     6.6450 ca         1 FG2      -0.154600
     18 CAS          2.0460     0.0000     1.2130 ca         1 FG2       0.117100
     19 CAT          8.7660     1.5070     7.0970 ca         1 FG2       0.310200
     20 CAU          5.4450    -0.0060     4.2890 cd         1 FG2      -0.343300
     21 CAV          4.0560     0.0010     2.5290 ca         1 FG2      -0.085800
     22 CAW          3.2800    -0.0040     3.7050 ca         1 FG2      -0.246200
     23 SAX          7.9370    -0.0190     7.3870 sy         1 FG2       0.979500
     24 HAA         -0.3610     0.8850     0.5110 h1         1 FG2      -0.004300
     25 HAAA        -0.3610    -0.8840     0.5110 h1         1 FG2      -0.004300
     26 HAAB        -0.3610    -0.0000    -1.0210 h1         1 FG2      -0.004300
     27 HAB         10.4380     5.5460     5.3870 hc         1 FG2       0.013700
     28 HABA        11.7440     5.1190     6.5020 hc         1 FG2       0.013700
     29 HABB        10.2980     5.9400     7.1060 hc         1 FG2       0.013700
     30 HAF         11.8660     2.8480     7.0390 ha         1 FG2       0.119000
     31 HAG         10.7140     0.6800     7.4520 ha         1 FG2       0.130000
     32 HAH          0.2020     0.0000     2.3110 ha         1 FG2       0.119000
     33 HAI          1.2890    -0.0060     4.5130 ha         1 FG2       0.099000
     34 HAJ          8.0370     4.6040     6.3060 h4         1 FG2      -0.013900
     35 HAK          4.0120    -0.0000     0.3710 ha         1 FG2       0.118000
     36 HAL          6.2730     0.0020     2.2720 ha         1 FG2       0.142000
     37 HNAN         5.6650    -0.0580     6.8940 hn         1 FG2       0.222500
     38 HNAO         3.8890    -0.0120     5.7380 hn         1 FG2       0.113700
     39 CAB         10.6700     5.2150     6.3920 c3         1 FG2       0.063200
@<TRIPOS>BOND
     1     1    15 1   
     2     1    24 1   
     3     1    25 1   
     4     1    26 1   
     5     2    16 2   
     6     3    23 2   
     7     4    23 2   
     8     5     6 ar  
     9     5    17 ar  
    10     5    30 1   
    11     6    19 ar  
    12     6    31 1   
    13     7     8 ar  
    14     7    18 ar  
    15     7    32 1   
    16     8    22 ar  
    17     8    33 1   
    18     9    12 ar  
    19     9    17 ar  
    20     9    34 1   
    21    10    18 ar  
    22    10    21 ar  
    23    10    35 1   
    24    11    20 2   
    25    11    21 1   
    26    11    36 1   
    27    12    19 ar  
    28    13    16 1   
    29    13    23 1   
    30    13    37 1   
    31    14    20 1   
    32    14    22 1   
    33    14    38 1   
    34    15    18 1   
    35    16    20 1   
    36    17    39 1   
    37    19    23 1   
    38    21    22 ar  
    39    27    39 1   
    40    28    39 1   
    41    29    39 1   
@<TRIPOS>SUBSTRUCTURE
     1 FG2         1 TEMP              0 ****  ****    0 ROOT
