@<TRIPOS>MOLECULE
molecule
   44    46     1     0     0
SMALL
bcc


@<TRIPOS>ATOM
      1 C            0.0000     0.0000     0.0000 c          1 FG3       0.882600
      2 N           -2.1940     0.0060     1.0360 na         1 FG3       0.039600
      3 OXT          1.3430     0.0000     0.0000 o          1 FG3      -0.824300
      4 CA          -0.7530     0.0000     1.3050 c3         1 FG3      -0.084700
      5 CAA         -5.7240     5.2510     0.8830 c3         1 FG3       0.134700
      6 OAD         -1.3280    -2.7430     1.0410 o          1 FG3      -0.556100
      7 OAE         -3.9120    -5.8680     0.0860 o          1 FG3      -0.607300
      8 OAF         -1.5440    -5.1130    -0.1650 o          1 FG3      -0.607300
      9 CAH         -1.0380    -5.4920     4.0580 ca         1 FG3      -0.118000
     10 CAI         -1.2600    -5.2070     2.7190 ca         1 FG3      -0.129300
     11 CAJ         -3.7730     3.3920     1.0660 ca         1 FG3      -0.205000
     12 CAK         -2.7450     2.4820     1.1680 ca         1 FG3      -0.078000
     13 CAL         -3.3130    -6.2040     4.1980 ca         1 FG3       0.383200
     14 CAM         -5.3420     1.6270     0.6110 ca         1 FG3      -0.125000
     15 CAN         -4.2560    -0.7200     0.5860 cc         1 FG3      -0.203200
     16 NAP         -3.4880    -5.9160     2.9230 nb         1 FG3      -0.602000
     17 NAQ         -3.3190    -3.4940     0.4020 ns         1 FG3      -0.647300
     18 CAU         -2.0880    -6.0030     4.8060 ca         1 FG3      -0.161600
     19 CAV         -5.0700     2.9670     0.7890 ca         1 FG3       0.092100
     20 CAW         -2.5110    -5.4340     2.1800 ca         1 FG3       0.181200
     21 CAX         -2.9710    -1.1090     0.7910 cd         1 FG3      -0.083300
     22 CAY         -4.3070     0.6890     0.7150 ca         1 FG3      -0.096800
     23 CAZ         -2.9970     1.1230     0.9950 ca         1 FG3      -0.045200
     24 SBB         -2.8080    -5.0680     0.4820 sy         1 FG3       1.355500
     25 O           -0.6030     0.0040    -1.0460 o          1 FG3      -0.824300
     26 HA          -0.4880     0.8820     1.8750 h1         1 FG3       0.064700
     27 HAA         -0.4950    -0.8870     1.8710 h1         1 FG3       0.064700
     28 HAAA        -5.2870     5.3780     1.8670 h1         1 FG3       0.032033
     29 HAAB        -5.0040     5.5440     0.1280 h1         1 FG3       0.032033
     30 HAAC        -6.6080     5.8710     0.7990 h1         1 FG3       0.032033
     31 HAB         -1.8340    -7.4110     6.3830 hc         1 FG3       0.045700
     32 HABA        -2.7340    -5.9560     6.8340 hc         1 FG3       0.045700
     33 HABB        -0.9800    -5.8800     6.6200 hc         1 FG3       0.045700
     34 HAH         -0.0670    -5.3240     4.5080 ha         1 FG3       0.145000
     35 HAI         -0.4620    -4.8080     2.1040 ha         1 FG3       0.191000
     36 HAJ         -3.5710     4.4470     1.2040 ha         1 FG3       0.124000
     37 HAK         -1.7390     2.8230     1.3850 ha         1 FG3       0.138000
     38 HAL         -4.1390    -6.5990     4.7760 h4         1 FG3       0.021100
     39 HAM         -6.3530     1.3010     0.3960 ha         1 FG3       0.129000
     40 HAN         -5.2180    -1.1850     0.4080 ha         1 FG3       0.142000
     41 HNAQ        -4.2340    -3.2820     0.0570 hn         1 FG3       0.353500
     42 OAR         -6.0730     3.8800     0.6910 os         1 FG3      -0.342900
     43 CAT         -2.4840    -2.4960     0.7540 c          1 FG3       0.720300
     44 CAB         -1.8960    -6.3360     6.2630 c3         1 FG3      -0.050800
@<TRIPOS>BOND
     1     4     1 1
     2     1    25 1
     3     1     3 1
     4    23     2 1
     5     4     2 1
     6     2    21 1
     7     4    26 1
     8     4    27 1
     9    42     5 1
    10     5    28 1
    11     5    29 1
    12     5    30 1
    13    18    44 1
    14    44    31 1
    15    44    32 1
    16    44    33 1
    17    43     6 2
    18    24     7 2
    19    24     8 2
    20    10     9 ar
    21    18     9 ar
    22     9    34 1
    23    20    10 ar
    24    10    35 1
    25    11    19 ar
    26    11    12 ar
    27    11    36 1
    28    12    23 ar
    29    12    37 1
    30    16    13 ar
    31    13    18 ar
    32    13    38 1
    33    19    14 ar
    34    14    22 ar
    35    14    39 1
    36    22    15 1
    37    15    21 2
    38    15    40 1
    39    16    20 ar
    40    43    17 1
    41    17    24 1
    42    17    41 1
    43    42    19 1
    44    21    43 1
    45    24    20 1
    46    23    22 ar
@<TRIPOS>SUBSTRUCTURE
     1 FG3         1 TEMP              0 ****  ****    0 ROOT
