@<TRIPOS>MOLECULE
FG4
   44    46     1     0     0
SMALL
bcc


@<TRIPOS>ATOM
      1 C           0.1910   -0.3680   -0.4710 c2        1 FG4      0.333000
      2 N           0.4800   -0.1280    2.0500 n3        1 FG4     -0.069000
      3 O           1.2170   -1.0850   -0.5510 o         1 FG4     -0.542000
      4 CA         -0.4390   -0.1020    0.9420 c3        1 FG4     -0.154000
      5 CAA         2.4920   -3.2910    7.0170 c1        1 FG4     -0.092000
      6 OAC         2.1470    3.1750    1.9830 o         1 FG4     -0.356000
      7 CAE        -4.8480    4.0200   -2.7970 ca        1 FG4     -0.166000
      8 CAF        -5.0380    5.2520   -2.1560 ca        1 FG4     -0.120000
      9 CAG         0.6220   -3.2640    3.9580 c2        1 FG4      0.057000
     10 CAH        -3.7770    3.1860   -2.4770 ca        1 FG4     -0.068000
     11 CAI        -4.1650    5.7040   -1.1670 ca        1 FG4     -0.138000
     12 CAJ         0.2790   -2.5080    2.8470 c2        1 FG4     -0.285000
     13 CAK         2.3410   -1.6630    4.7370 c1        1 FG4     -0.223000
     14 CAL        -1.6840    3.0520   -0.8930 c2        1 FG4     -0.126000
     15 CAM         2.3170    0.5160    3.3130 c2        1 FG4     -0.078000
     16 CAN        -0.1120    4.0250    0.9670 c3        1 FG4      0.057000
     17 OAQ        -0.0040    2.7240    1.5750 os        1 FG4     -0.256000
     18 OAR        -2.1090    5.1030    0.0980 os        1 FG4     -0.128000
     19 CAU         1.5730   -2.7920    4.8880 c2        1 FG4     -0.265000
     20 CAV        -1.2570    3.9670    0.0370 c2        1 FG4     -0.059000
     21 CAW         1.3550    0.9440    2.4270 c2        1 FG4     -0.066000
     22 CAX        -2.8860    3.6050   -1.4930 ca        1 FG4     -0.093000
     23 CAY         2.1990   -0.9680    3.4610 c3        1 FG4     -0.089000
     24 CAZ        -3.1010    4.8660   -0.8510 ca        1 FG4      0.019000
     25 CBA         0.9120   -1.2620    2.6800 c2        1 FG4      0.128000
     26 OXT        -0.4330    0.1610   -1.4290 o         1 FG4     -0.542000
     27 HA         -1.2060   -0.9070    1.1180 h1        1 FG4      0.112000
     28 HAA        -0.9560    0.8960    0.9190 h1        1 FG4      0.112000
     29 HAAA       -0.0500   -5.9960    5.8550 ha        1 FG4      0.000500
     30 HAAB        0.3960   -5.5370    6.0770 ha        1 FG4      0.000500
     31 HAAC        3.1280   -2.3830    6.9550 ha        1 FG4      0.058000
     32 HAG         0.1230   -4.2310    4.1390 ha        1 FG4      0.135000
     33 HAH        -3.6320    2.2200   -2.9820 ha        1 FG4      0.152000
     34 HAI        -4.3070    6.6660   -0.6600 ha        1 FG4      0.139000
     35 HAJ        -0.4920   -2.8440    2.1420 ha        1 FG4      0.153000
     36 HAK         3.0510   -1.4230    2.8390 hc        1 FG4      0.210000
     37 HAL        -1.2270    2.0810   -1.1440 ha        1 FG4      0.242000
     38 HAM         3.0810    1.1140    3.8070 ha        1 FG4      0.182000
     39 HAN        -0.2830    4.7720    1.7880 h1        1 FG4      0.113500
     40 HANA        0.8350    4.2750    0.4140 h1        1 FG4      0.113500
     41 OAP         1.6960   -3.5910    6.0680 os        1 FG4     -0.029000
     42 CAT         1.2430    2.3330    1.9760 c2        1 FG4      0.382000
     43 HAE        -5.5620    3.7050   -3.5710 ha        1 FG4      0.124000
     44 HAF        -5.8960    5.8780   -2.4390 ha        1 FG4      0.122000
@<TRIPOS>BOND
     1    1    3 1   
     2    1    4 1   
     3    1   26 1   
     4    2    4 1   
     5    2   21 1   
     6    2   25 1   
     7    4   27 1   
     8    4   28 1   
     9    5   31 1   
    10    5   41 1   
    11    6   42 1   
    12    7    8 1   
    13    7   10 1   
    14    7   43 1   
    15    8   11 1   
    16    8   44 1   
    17    9   12 1   
    18    9   19 1   
    19    9   32 1   
    20   10   22 1   
    21   10   33 1   
    22   11   24 1   
    23   11   34 1   
    24   12   25 1   
    25   12   35 1   
    26   13   19 1   
    27   13   23 1   
    28   14   20 1   
    29   14   22 1   
    30   14   37 1   
    31   15   21 1   
    32   15   23 1   
    33   15   38 1   
    34   16   17 1   
    35   16   20 1   
    36   16   39 1   
    37   16   40 1   
    38   17   42 1   
    39   18   20 1   
    40   18   24 1   
    41   19   41 1   
    42   21   42 1   
    43   22   24 1   
    44   23   25 1   
    45   23   36 1   
    46   29   30 1   
@<TRIPOS>SUBSTRUCTURE
     1 FG4         1 TEMP              0 ****  ****    0 ROOT
