@<TRIPOS>MOLECULE
FG5
   47    48     1     0     0
SMALL
bcc


@<TRIPOS>ATOM
      1 C           0.7600   -0.9950    1.0230 c2        1 FG5      0.266000
      2 N           0.4410   -0.3040    3.4330 n3        1 FG5     -0.146000
      3 OXT         1.7870   -0.4190    0.6630 o         1 FG5     -0.302000
      4 CA         -0.1690   -0.5870    2.1520 c3        1 FG5     -0.094000
      5 CAA         2.4440    6.1360    4.0280 c3        1 FG5     -0.076000
      6 OAC        -2.4820   -4.1440    4.2540 o         1 FG5     -0.937500
      7 OAD        -1.4010   -3.5360    2.1970 o         1 FG5     -0.937500
      8 CAF         1.0110   -9.8790    2.9860 ca        1 FG5     -0.157000
      9 CAG         2.0380   -9.1500    2.3570 ca        1 FG5     -0.082000
     10 CAH        -0.8350    2.8960    2.8750 c1        1 FG5     -0.180000
     11 CAI        -0.1110   -9.2510    3.5120 ca        1 FG5     -0.056000
     12 CAJ         1.9840   -7.7660    2.2310 ca        1 FG5     -0.133000
     13 CAK        -0.0720    2.0490    3.2410 c1        1 FG5     -0.126000
     14 CAL         2.3270    2.6570    4.9130 c2        1 FG5     -0.192000
     15 CAM         2.3290   -1.0260    4.8180 c1        1 FG5      0.127000
     16 CAN        -1.1640   -6.8590    3.8010 c2        1 FG5      0.006000
     17 NAQ        -0.1720   -3.2610    4.3180 n3        1 FG5     -0.890000
     18 OAS         0.5800   -5.7820    2.7550 os        1 FG5     -0.073000
     19 CAU         2.1300    3.8150    4.2510 c2        1 FG5     -0.008000
     20 CAV         1.3010   -1.2880    3.9870 c2        1 FG5     -0.294000
     21 CAW        -0.6730   -5.6320    3.3980 c2        1 FG5     -0.756000
     22 CAX        -0.2010   -7.8610    3.4040 ca        1 FG5     -0.140000
     23 CAY         1.9280    1.3620    4.4340 c2        1 FG5     -0.141000
     24 CAZ         0.8540   -7.1430    2.7620 ca        1 FG5      0.059000
     25 CBA         0.8260    1.0470    3.6940 c2        1 FG5      0.095000
     26 SBC        -1.2960   -4.0660    3.5020 s6        1 FG5      2.890000
     27 O           0.4510   -2.0950    0.2820 oh        1 FG5     -0.298000
     28 HA         -0.9320   -1.4020    2.3200 h1        1 FG5      0.136500
     29 HAA        -0.7260    0.3280    1.7920 h1        1 FG5      0.136500
     30 HAAA        3.0320    6.0250    3.0850 h1        1 FG5      0.082667
     31 HAAB        1.3670    6.3210    3.7940 h1        1 FG5      0.082667
     32 HAAC        2.8590    6.9600    4.6590 h1        1 FG5      0.082667
     33 HAH         1.6370    3.9090    3.2720 h4        1 FG5      0.143000
     34 HAJ         2.7780   -7.1900    1.7390 ha        1 FG5      0.160000
     35 HAK        -1.5090    3.6500    2.5550 ha        1 FG5      0.230000
     36 HAL         2.8590    2.6640    5.8810 ha        1 FG5      0.150000
     37 HAM         2.6750    0.5720    4.7720 ha        1 FG5      0.177000
     38 HAN        -2.1060   -7.0470    4.3210 ha        1 FG5      0.183000
     39 HNAQ       -0.3600   -2.5210    0.6100 ho        1 FG5      0.261000
     40 CAO         1.0400   -2.7650    3.7350 c3        1 FG5      0.050000
     41 OAR         2.5860    4.9770    4.8450 os        1 FG5     -0.217000
     42 HAF         1.1050  -10.9730    3.0580 ha        1 FG5      0.142000
     43 HAO         1.0130   -2.9460    2.6170 h1        1 FG5      0.113000
     44 HAOA        1.9190   -3.3450    4.1500 h1        1 FG5      0.113000
     45 HAG         2.9080   -9.6930    1.9540 ha        1 FG5      0.143000
     46 HAQ2       -0.2670   -3.0550    5.2860 hn        1 FG5      0.262000
     47 HAI        -0.9090   -9.8280    4.0000 ha        1 FG5      0.145000
@<TRIPOS>BOND
     1    1    3 1
     2    1    4 1
     3    1   27 1
     4    2    4 1
     5    2   20 1
     6    2   25 1
     7    4   28 1
     8    4   29 1
     9    5   30 1
    10    5   31 1
    11    5   32 1
    12    5   41 1
    13    6   26 1
    14    7   26 1
    15    8    9 1
    16    8   11 1
    17    8   42 1
    18    9   12 1
    19    9   45 1
    20   10   13 1
    21   10   35 1
    22   11   22 1
    23   11   47 1
    24   12   24 1
    25   12   34 1
    26   13   25 1
    27   14   19 1
    28   14   23 1
    29   14   36 1
    30   15   20 1
    31   16   21 1
    32   16   22 1
    33   16   38 1
    34   17   26 1
    35   17   40 1
    36   17   46 1
    37   18   21 1
    38   18   24 1
    39   19   33 1
    40   19   41 1
    41   20   40 1
    42   21   26 1
    43   22   24 1
    44   23   25 1
    45   23   37 1
    46   27   39 1
    47   40   43 1
    48   40   44 1
@<TRIPOS>SUBSTRUCTURE
     1 FG5         1 TEMP              0 ****  ****    0 ROOT
