@<TRIPOS>MOLECULE
FG6
   46    48     1     0     0
SMALL
bcc


@<TRIPOS>ATOM
      1 C          -0.5420   -0.3620   -0.3130 c2        1 FG6      0.310000
      2 N          -0.2480   -1.0730    2.0340 n3        1 FG6     -0.178000
      3 OXT        -0.3710    0.9640    0.0410 os        1 FG6     -0.248000
      4 CA         -0.2960   -1.4920    0.6590 c3        1 FG6     -0.072000
      5 CAA         3.5880   -2.8760    6.7210 c1        1 FG6     -0.035000
      6 OAC         0.1430    2.5290    1.4530 o         1 FG6     -0.310000
      7 OAD         1.1700    3.3980    4.1330 o         1 FG6     -0.924500
      8 OAE         1.1450    5.7220    4.7520 o         1 FG6     -0.924500
      9 CAG        -4.4320    7.0890    5.4900 ca        1 FG6     -0.207000
     10 CAH        -4.1490    7.9250    4.3990 ca        1 FG6     -0.030000
     11 CAI         1.3010   -3.7720    4.1250 c2        1 FG6      0.050000
     12 CAJ        -3.7030    5.9250    5.7170 ca        1 FG6      0.025000
     13 CAK        -3.1310    7.6330    3.4910 ca        1 FG6     -0.184000
     14 CAL         0.4730   -3.2460    3.0890 c2        1 FG6     -0.251000
     15 CAM         1.7690   -1.5300    5.0620 c1        1 FG6     -0.086000
     16 CAN        -1.7540    4.4970    4.7940 c1        1 FG6      0.040000
     17 CAO         0.7910    0.3600    3.5580 c2        1 FG6      0.005000
     18 NAQ         1.3670    5.1100    2.3820 n3        1 FG6     -0.947000
     19 OAS        -1.3590    6.0090    2.9540 os        1 FG6     -0.175000
     20 CAV         1.9550   -2.9230    4.9930 c2        1 FG6     -0.228000
     21 CAW        -0.9350    4.7370    3.5680 c3        1 FG6     -0.711000
     22 CAX         0.2160    0.2650    2.3170 c2        1 FG6     -0.162000
     23 CAY        -2.6750    5.5930    4.8290 ca        1 FG6     -0.255000
     24 CAZ         0.7210   -0.9950    4.2060 c3        1 FG6     -0.119000
     25 CBA        -2.4060    6.4660    3.7230 ca        1 FG6      0.123000
     26 CBB         0.2710   -1.8930    3.0490 c2        1 FG6      0.052000
     27 SBD         0.8290    4.7250    3.8220 s6        1 FG6      2.854000
     28 O          -0.8810   -0.4930   -1.4830 o         1 FG6     -0.250000
     29 HA          0.6590   -2.0080    0.3380 h1        1 FG6      0.138000
     30 HAA        -1.1430   -2.2340    0.5500 h1        1 FG6      0.138000
     31 HAAA        3.2070   -5.9000    5.8900 ha        1 FG6      0.001000
     32 HAAB        2.8030   -6.1790    5.4230 ha        1 FG6      0.001000
     33 HAAC        3.5070   -1.7760    6.8230 ha        1 FG6      0.079000
     34 HAI         1.4580   -4.8640    4.1780 ha        1 FG6      0.161000
     35 HAK        -2.9070    8.2870    2.6390 ha        1 FG6      0.157000
     36 HAL         0.0810   -3.9250    2.3200 ha        1 FG6      0.153000
     37 HAM        -0.1450   -0.9440    4.9660 hc        1 FG6      0.222000
     38 HAN        -1.2180    3.9320    2.8260 h2        1 FG6      0.206000
     39 HAO         1.1920    1.2530    4.0570 ha        1 FG6      0.243000
     40 HNAQ        1.4400    4.4590    1.6360 hn        1 FG6      0.258500
     41 OAR         2.8960   -3.5350    5.8820 os        1 FG6     -0.020000
     42 CAU         0.0130    1.3120    1.3260 c2        1 FG6      0.408000
     43 HAG        -5.2440    7.3660    6.1790 ha        1 FG6      0.143000
     44 HAH        -4.7470    8.8390    4.2550 ha        1 FG6      0.140000
     45 HAQ2        1.5550    6.0400    2.0970 hn        1 FG6      0.258500
     46 HAJ        -3.9200    5.2720    6.5750 ha        1 FG6      0.155000
@<TRIPOS>BOND
     1    1    3 1   
     2    1    4 1   
     3    1   28 1   
     4    2    4 1   
     5    2   22 1   
     6    2   26 1   
     7    3   42 1   
     8    4   29 1   
     9    4   30 1   
    10    5   33 1   
    11    5   41 1   
    12    6   42 1   
    13    7   27 1   
    14    8   27 1   
    15    9   10 1   
    16    9   12 1   
    17    9   43 1   
    18   10   13 1   
    19   10   44 1   
    20   11   14 1   
    21   11   20 1   
    22   11   34 1   
    23   12   23 1   
    24   12   46 1   
    25   13   25 1   
    26   13   35 1   
    27   14   26 1   
    28   14   36 1   
    29   15   20 1   
    30   15   24 1   
    31   16   21 1   
    32   16   23 1   
    33   17   22 1   
    34   17   24 1   
    35   17   39 1   
    36   18   27 1   
    37   18   40 1   
    38   18   45 1   
    39   19   21 1   
    40   19   25 1   
    41   20   41 1   
    42   21   27 1   
    43   21   38 1   
    44   22   42 1   
    45   23   25 1   
    46   24   26 1   
    47   24   37 1   
    48   31   32 1   
@<TRIPOS>SUBSTRUCTURE
     1 FG6         1 TEMP              0 ****  ****    0 ROOT
