@<TRIPOS>MOLECULE
FG7
   23    23     1     0     0
SMALL
bcc


@<TRIPOS>ATOM
      1 C1           0.0000     0.0000     0.0000 ca         1 FG7       0.017600
      2 N2          -0.6980     0.0000    -1.2110 nv         1 FG7      -0.535200
      3 C3           1.3860     0.0000     0.0000 ca         1 FG7      -0.065000
      4 C4           2.0780     0.0000     1.2130 ca         1 FG7      -0.136600
      5 C5           3.5560     0.0010     1.2220 c          1 FG7       0.720700
      6 O6           4.2210     0.0010     2.3930 os         1 FG7      -0.414900
      7 C7           5.6720     0.0020     2.3270 c3         1 FG7       0.227400
      8 C8           6.2470     0.0010     3.7440 c3         1 FG7      -0.004100
      9 C9           1.3700     0.0000     2.4150 ca         1 FG7      -0.070000
     10 C10         -0.0100    -0.0010     2.4030 ca         1 FG7      -0.105000
     11 C11         -0.6970     0.0050     1.2030 ca         1 FG7      -0.098000
     12 O12          4.1690     0.0020     0.1740 o          1 FG7      -0.592000
     13 HN2         -1.2470    -0.7950    -1.4720 hn         1 FG7       0.272800
     14 HN2A        -0.6410     0.7910    -1.8210 hn         1 FG7       0.272800
     15 H3           1.9280    -0.1030    -0.9330 ha         1 FG7       0.131000
     16 H7           6.0090     0.8870     1.8010 h1         1 FG7       0.008700
     17 H7A          6.0100    -0.8820     1.7990 h1         1 FG7       0.008700
     18 H8           5.9090     0.8850     4.2710 hc         1 FG7       0.010033
     19 H8A          7.3290     0.0020     3.6940 hc         1 FG7       0.010033
     20 H8B          5.9100    -0.8840     4.2700 hc         1 FG7       0.010033
     21 H9           1.9030    -0.0030     3.3580 ha         1 FG7       0.116000
     22 H10         -0.5580     0.0010     3.3380 ha         1 FG7       0.105000
     23 H11         -1.7800     0.0040     1.2000 ha         1 FG7       0.108000
@<TRIPOS>BOND
     1     1     2 1   
     2     1     3 ar  
     3     1    11 ar  
     4     2    13 1   
     5     2    14 1   
     6     3     4 ar  
     7     3    15 1   
     8     4     5 1   
     9     4     9 ar  
    10     5     6 1   
    11     5    12 2   
    12     6     7 1   
    13     7     8 1   
    14     7    16 1   
    15     7    17 1   
    16     8    18 1   
    17     8    19 1   
    18     8    20 1   
    19     9    10 ar  
    20     9    21 1   
    21    10    11 ar  
    22    10    22 1   
    23    11    23 1   
@<TRIPOS>SUBSTRUCTURE
     1 FG7         1 TEMP              0 ****  ****    0 ROOT
