@<TRIPOS>MOLECULE
molecule
   23    23     1     0     0
SMALL
bcc


@<TRIPOS>ATOM
      1 C1           0.0000     0.0000     0.0000 ca         1 FG7       0.156600
      2 N2          -0.6980     0.0000    -1.2110 nv         1 FG7      -0.976200
      3 C3           1.3860     0.0000     0.0000 ca         1 FG7      -0.097000
      4 C4           2.0780     0.0000     1.2130 ca         1 FG7      -0.122600
      5 C5           3.5560     0.0010     1.2220 c          1 FG7       0.650700
      6 O6           4.2210     0.0010     2.3930 os         1 FG7      -0.430900
      7 C7           5.6720     0.0020     2.3270 c3         1 FG7       0.147400
      8 C8           6.2470     0.0010     3.7440 c3         1 FG7      -0.096100
      9 C9           1.3700     0.0000     2.4150 ca         1 FG7      -0.096000
     10 C10         -0.0100    -0.0010     2.4030 ca         1 FG7      -0.135000
     11 C11         -0.6970     0.0050     1.2030 ca         1 FG7      -0.127000
     12 O12          4.1690     0.0020     0.1740 o          1 FG7      -0.553000
     13 HN2         -1.2470    -0.7950    -1.4720 hn         1 FG7       0.430300
     14 HN2A        -0.6410     0.7910    -1.8210 hn         1 FG7       0.430300
     15 H3           1.9280    -0.1030    -0.9330 ha         1 FG7       0.160000
     16 H7           6.0090     0.8870     1.8010 h1         1 FG7       0.049700
     17 H7A          6.0100    -0.8820     1.7990 h1         1 FG7       0.049700
     18 H8           5.9090     0.8850     4.2710 hc         1 FG7       0.047033
     19 H8A          7.3290     0.0020     3.6940 hc         1 FG7       0.047033
     20 H8B          5.9100    -0.8840     4.2700 hc         1 FG7       0.047033
     21 H9           1.9030    -0.0030     3.3580 ha         1 FG7       0.147000
     22 H10         -0.5580     0.0010     3.3380 ha         1 FG7       0.134000
     23 H11         -1.7800     0.0040     1.2000 ha         1 FG7       0.137000
@<TRIPOS>BOND
     1     1     2 1
     2     1     3 ar
     3     1    11 ar
     4     3     4 ar
     5     4     5 1
     6     4     9 ar
     7     5     6 1
     8     5    12 2
     9     6     7 1
    10     7     8 1
    11     9    10 ar
    12    10    11 ar
    13     2    13 1
    14     2    14 1
    15     3    15 1
    16     7    16 1
    17     7    17 1
    18     8    18 1
    19     8    19 1
    20     8    20 1
    21     9    21 1
    22    10    22 1
    23    11    23 1
@<TRIPOS>SUBSTRUCTURE
     1 FG7         1 TEMP              0 ****  ****    0 ROOT
