@<TRIPOS>MOLECULE
FG8
   32    35     1     0     0
SMALL
bcc


@<TRIPOS>ATOM
      1 C1           0.0000     0.0000     0.0000 c2         1 FG8      -0.180000
      2 C2           1.3510     0.0000     0.0000 c2         1 FG8       0.054000
      3 C3           2.0850     0.0000     1.2710 c3         1 FG8       0.024000
      4 C4           1.3890    -0.0060     2.4860 c2         1 FG8      -0.147000
      5 C5           2.0840    -0.0120     3.6750 c2         1 FG8      -0.071000
      6 C6           3.4710    -0.0110     3.6770 c2         1 FG8      -0.123000
      7 C7           4.1730    -0.0050     2.4880 c2         1 FG8      -0.086000
      8 N           -2.0790     0.0000    -1.2670 n7         1 FG8       0.079000
      9 C           -0.7300     0.0000    -1.2660 c3         1 FG8       0.351000
     10 C8           3.4910    -0.0010     1.2780 c2         1 FG8      -0.232000
     11 C10          6.5990     1.4140     0.5240 ca         1 FG8      -0.031000
     12 C11          7.9120     1.5320     0.9350 ca         1 FG8      -0.119000
     13 C12          8.6910     0.4010     1.1040 ca         1 FG8      -0.085000
     14 C13          8.1580    -0.8520     0.8590 ca         1 FG8      -0.119000
     15 C14          6.8460    -0.9780     0.4490 ca         1 FG8      -0.031000
     16 C9           6.0600     0.1560     0.2840 ca         1 FG8      -0.220000
     17 O           -0.1220     0.0010    -2.3210 o          1 FG8      -0.403000
     18 O1          -2.7860     0.0000    -2.4930 oh         1 FG8      -0.239000
     19 S            4.3840     0.0000    -0.2410 ss         1 FG8       0.182000
     20 H1          -0.1470    -0.8750    -0.6220 DU         1 FG8       0.030000
     21 H2           1.4970    -0.8750     0.6220 DU         1 FG8       0.092000
     22 H3           0.3060    -0.0070     2.4900 ha         1 FG8       0.122000
     23 H4           1.5440    -0.0170     4.6140 ha         1 FG8       0.105000
     24 H5           4.0070    -0.0150     4.6180 ha         1 FG8       0.107000
     25 H6           5.2560    -0.0050     2.4990 ha         1 FG8       0.120000
     26 H7          -2.5790     0.0190    -0.4010 hn         1 FG8       0.077000
     27 H8           5.9890     2.3000     0.3940 ha         1 FG8       0.124000
     28 H9           8.3330     2.5120     1.1260 ha         1 FG8       0.120000
     29 H10          8.7710    -1.7360     0.9900 ha         1 FG8       0.120000
     30 H11          6.4280    -1.9600     0.2600 ha         1 FG8       0.124000
     31 H12         -3.7070     0.1170    -2.3250 ho         1 FG8       0.193000
     32 Cl          10.3410     0.5550     1.6210 cl         1 FG8       0.062000
@<TRIPOS>BOND
     1     1     2 1   
     2     1     9 1   
     3     1    20 1   
     4     2     3 1   
     5     2    21 1   
     6     3     4 1   
     7     3    10 1   
     8     3    21 1   
     9     4     5 1   
    10     4    22 1   
    11     5     6 1   
    12     5    23 1   
    13     6     7 1   
    14     6    24 1   
    15     7    10 1   
    16     7    25 1   
    17     8     9 1   
    18     8    18 1   
    19     8    26 1   
    20     9    17 1   
    21     9    20 1   
    22    10    19 1   
    23    11    12 1   
    24    11    16 1   
    25    11    27 1   
    26    12    13 1   
    27    12    28 1   
    28    13    14 1   
    29    13    32 1   
    30    14    15 1   
    31    14    29 1   
    32    15    16 1   
    33    15    30 1   
    34    16    19 1   
    35    18    31 1   
@<TRIPOS>SUBSTRUCTURE
     1 FG8         1 TEMP              0 ****  ****    0 ROOT
