@<TRIPOS>MOLECULE
molecule
   32    33     1     0     0
SMALL
bcc


@<TRIPOS>ATOM
      1 C1           0.0000     0.0000     0.0000 ce         1 FG8      -0.253200
      2 C2           1.3510     0.0000     0.0000 cf         1 FG8      -0.010200
      3 C3           2.0850     0.0000     1.2710 ca         1 FG8      -0.071800
      4 C4           1.3890    -0.0060     2.4860 ca         1 FG8      -0.098000
      5 C5           2.0840    -0.0120     3.6750 ca         1 FG8      -0.140000
      6 C6           3.4710    -0.0110     3.6770 ca         1 FG8      -0.099000
      7 C7           4.1730    -0.0050     2.4880 ca         1 FG8      -0.144000
      8 N           -2.0790     0.0000    -1.2670 ns         1 FG8      -0.470400
      9 C           -0.7300     0.0000    -1.2660 c          1 FG8       0.679300
     10 C8           3.4910    -0.0010     1.2780 ca         1 FG8       0.044900
     11 C10          6.5990     1.4140     0.5240 ca         1 FG8      -0.068000
     12 C11          7.9120     1.5320     0.9350 ca         1 FG8      -0.138000
     13 C12          8.6910     0.4010     1.1040 ca         1 FG8       0.054400
     14 C13          8.1580    -0.8520     0.8590 ca         1 FG8      -0.138000
     15 C14          6.8460    -0.9780     0.4490 ca         1 FG8      -0.068000
     16 C9           6.0600     0.1560     0.2840 ca         1 FG8      -0.029100
     17 O           -0.1220     0.0010    -2.3210 o          1 FG8      -0.581100
     18 O1          -2.7860     0.0000    -2.4930 oh         1 FG8      -0.361100
     19 S            4.3840     0.0000    -0.2410 ss         1 FG8      -0.172800
     20 H1          -0.5420     0.0000     0.9380 ha         1 FG8       0.127000
     21 H2           1.8920     0.0000    -0.9380 ha         1 FG8       0.170000
     22 H3           0.3060    -0.0070     2.4900 ha         1 FG8       0.135000
     23 H4           1.5440    -0.0170     4.6140 ha         1 FG8       0.133000
     24 H5           4.0070    -0.0150     4.6180 ha         1 FG8       0.134000
     25 H6           5.2560    -0.0050     2.4990 ha         1 FG8       0.143000
     26 H7          -2.5790     0.0000    -0.4000 hn         1 FG8       0.318500
     27 H8           5.9890     2.3000     0.3940 ha         1 FG8       0.153000
     28 H9           8.3330     2.5120     1.1260 ha         1 FG8       0.150000
     29 H10          8.7710    -1.7360     0.9900 ha         1 FG8       0.150000
     30 H11          6.4280    -1.9600     0.2600 ha         1 FG8       0.153000
     31 H12         -3.7130     0.0000    -2.3210 ho         1 FG8       0.397000
     32 Cl          10.3410     0.5550     1.6210 cl         1 FG8      -0.099400
@<TRIPOS>BOND
     1     5     6 ar
     2     5     4 ar
     3     6     7 ar
     4     4     3 ar
     5     7    10 ar
     6     3    10 ar
     7     3     2 1
     8     1     2 2
     9     1     9 1
    10    10    19 1
    11     8    18 1
    12     8     9 1
    13     9    17 2
    14    19    16 1
    15    16    15 ar
    16    16    11 ar
    17    15    14 ar
    18    11    12 ar
    19    14    13 ar
    20    13    12 ar
    21    13    32 1
    22     1    20 1
    23     2    21 1
    24     4    22 1
    25     5    23 1
    26     6    24 1
    27     7    25 1
    28     8    26 1
    29    11    27 1
    30    12    28 1
    31    14    29 1
    32    15    30 1
    33    18    31 1
@<TRIPOS>SUBSTRUCTURE
     1 FG8         1 TEMP              0 ****  ****    0 ROOT
