@<TRIPOS>MOLECULE
molecule
   52    54     1     0     0
SMALL
bcc


@<TRIPOS>ATOM
      1 C13          0.0000     0.0000     0.0000 ca         1 FGD      -0.042500
      2 C15          2.0930     0.0000     1.2130 ca         1 FGD      -0.042500
      3 C17          0.0090    -0.0010     2.3980 ca         1 FGD       0.191600
      4 C20         -0.9400    -0.0000     6.0150 ca         1 FGD      -0.123300
      5 C21         -1.3860    -1.1970     6.5340 ca         1 FGD      -0.022000
      6 C22         -2.2920    -1.1900     7.5910 ca         1 FGD      -0.205600
      7 C24         -2.2870     1.2260     7.5840 ca         1 FGD      -0.192000
      8 C02          4.3650     1.4150    -3.0370 c          1 FGD       0.887600
      9 C04          4.2200    -0.0010    -2.5410 c3         1 FGD       0.022700
     10 C05          5.6070    -0.6100    -2.3260 c3         1 FGD      -0.083400
     11 C06          5.4630    -2.0830    -1.9420 c3         1 FGD      -0.172400
     12 C07          6.8290    -2.6840    -1.7310 c          1 FGD       0.903600
     13 C12          1.3980     0.0000     0.0000 ca         1 FGD      -0.162600
     14 C14         -0.6870    -0.0000     1.1920 ca         1 FGD      -0.221000
     15 C16          1.4010    -0.0000     2.4020 ca         1 FGD      -0.221000
     16 C19          0.0420    -0.0000     4.8720 c3         1 FGD       0.288100
     17 C23         -2.7460     0.0310     8.1200 ca         1 FGD       0.166600
     18 C25         -1.3930     1.2040     6.5330 ca         1 FGD      -0.049000
     19 C27         -4.0770    -1.1860     9.6710 cc         1 FGD       0.549100
     20 C30         -2.8040    -2.4380     8.1870 c          1 FGD       0.716100
     21 N10          3.4860     0.0000    -1.2740 ns         1 FGD      -0.529900
     22 N18         -0.6890    -0.0010     3.6010 nu         1 FGD      -0.837600
     23 N26         -3.6470     0.0020     9.1690 na         1 FGD      -0.701600
     24 N28         -4.9670    -1.1730    10.7070 nz         1 FGD      -0.709600
     25 N29         -3.6760    -2.3490     9.2020 nd         1 FGD      -0.720100
     26 O08          6.9490    -3.9760    -1.3840 o          1 FGD      -0.795800
     27 O09          7.8170    -2.0030    -1.8730 o          1 FGD      -0.795800
     28 O31         -2.4450    -3.5240     7.7660 o          1 FGD      -0.519100
     29 O32          1.5320    -0.0010    -2.3290 o          1 FGD      -0.624100
     30 H131        -0.5420     0.0000    -0.9380 ha         1 FGD       0.150000
     31 H151         3.1770     0.0000     1.2170 ha         1 FGD       0.150000
     32 H211        -0.9360    -2.1280     6.2130 ha         1 FGD       0.178000
     33 H241        -2.6350     2.1710     7.9830 ha         1 FGD       0.132000
     34 H041         3.6780    -0.5870    -3.2720 h1         1 FGD       0.084700
     35 H052         6.1160    -0.0780    -1.5320 hc         1 FGD       0.066700
     36 H051         6.1820    -0.5300    -3.2410 hc         1 FGD       0.066700
     37 H061         4.7920    -2.2650    -2.7730 hc         1 FGD       0.037200
     38 H062         4.9030    -2.1550    -1.0170 hc         1 FGD       0.037200
     39 H141        -1.7700    -0.0010     1.1920 ha         1 FGD       0.118500
     40 H161         1.9390    -0.0000     3.3420 ha         1 FGD       0.118500
     41 H192         0.6640     0.8840     4.9300 h1         1 FGD       0.052200
     42 H191         0.6650    -0.8850     4.9300 h1         1 FGD       0.052200
     43 H251        -1.0340     2.1370     6.1150 ha         1 FGD       0.155000
     44 H101         3.9840     0.0330    -0.4070 hn         1 FGD       0.308500
     45 H181        -1.6900    -0.0170     3.5990 hn         1 FGD       0.432800
     46 H261        -3.9840     0.8590     9.5610 hn         1 FGD       0.436800
     47 H281        -5.1890    -2.1130    10.9690 hn         1 FGD       0.448133
     48 H283        -5.8020    -0.7000    10.4240 hn         1 FGD       0.448133
     49 C11          2.1380    -0.0000    -1.2760 c          1 FGD       0.672700
     50 O03          5.0080     1.6590    -4.1910 o          1 FGD      -0.774800
     51 H282        -4.5620    -0.6960    11.4880 hn         1 FGD       0.448133
     52 O01          3.9010     2.3300    -2.3990 o          1 FGD      -0.774800
@<TRIPOS>BOND
     1     1    13 ar
     2     1    14 ar
     3     2    13 ar
     4     2    15 ar
     5     3    14 ar
     6     3    15 ar
     7     3    22 1
     8     4     5 ar
     9     4    16 1
    10     4    18 ar
    11     5     6 ar
    12     6    17 ar
    13     6    20 1
    14     7    17 ar
    15     7    18 ar
    16     8     9 1
    17     8    52 1
    18     8    50 1
    19     9    10 1
    20     9    21 1
    21    10    11 1
    22    11    12 1
    23    12    26 1
    24    12    27 1
    25    49    13 1
    26    49    21 1
    27    49    29 2
    28    16    22 1
    29    17    23 1
    30    19    23 1
    31    19    24 1
    32    19    25 2
    33    20    25 1
    34    20    28 2
    35     1    30 1
    36     2    31 1
    37     5    32 1
    38     7    33 1
    39     9    34 1
    40    10    35 1
    41    10    36 1
    42    11    37 1
    43    11    38 1
    44    14    39 1
    45    15    40 1
    46    16    41 1
    47    16    42 1
    48    18    43 1
    49    21    44 1
    50    22    45 1
    51    23    46 1
    52    24    47 1
    53    24    48 1
    54    51    24 1
@<TRIPOS>SUBSTRUCTURE
     1 FGD         1 TEMP              0 ****  ****    0 ROOT
