@<TRIPOS>MOLECULE
molecule
   37    39     1     0     0
SMALL
bcc


@<TRIPOS>ATOM
      1 C1           0.0000     0.0000     0.0000 ca         1 FGE       0.008000
      2 C2           2.1080     0.0000     1.2070 ca         1 FGE      -0.034000
      3 C3           1.4090     0.0000     0.0000 ca         1 FGE       0.075000
      4 C7           2.1440    -0.0010    -1.2750 cc         1 FGE      -0.227400
      5 C8           1.9020    -0.8090    -2.3350 cc         1 FGE       0.485600
      6 C9           3.5980     0.3210    -3.2370 cd         1 FGE       0.629300
      7 C10         -0.9960    -0.0010     3.4770 c          1 FGE       0.708100
      8 C11          4.5160     0.0200    -5.3990 c          1 FGE       0.644100
      9 C12         -2.1040     0.0010     1.5820 cc         1 FGE       0.602800
     10 C13          0.8130    -1.8510    -2.3370 c3         1 FGE      -0.131400
     11 C14          5.5140     0.3950    -6.4630 c3         1 FGE      -0.166100
     12 N18          4.5170     0.6660    -4.2160 ns         1 FGE      -0.531400
     13 C4           0.0400     0.0000     2.4190 ca         1 FGE      -0.160600
     14 C5          -0.6800     0.0010     1.2010 ca         1 FGE      -0.236900
     15 C6           1.4230     0.0000     2.4120 ca         1 FGE      -0.257500
     16 N15          2.6970    -0.6080    -3.3590 nc         1 FGE      -0.686000
     17 N16         -2.2020     0.0000     2.8820 nd         1 FGE      -0.611100
     18 N17          1.9850     1.4330     4.6930 nz         1 FGE      -0.811500
     19 O19         -0.7910    -0.0010     4.6760 o          1 FGE      -0.484100
     20 O20          3.7110    -0.8630    -5.6070 o          1 FGE      -0.509100
     21 O21          1.7370    -1.0220     4.7340 o          1 FGE      -0.507300
     22 O22          3.6920     0.0340     3.5900 o          1 FGE      -0.507300
     23 S23          3.4890     1.0560    -1.6980 ss         1 FGE      -0.215300
     24 S24          2.3140     0.0000     3.9320 sy         1 FGE       1.242200
     25 H1          -0.6570     0.4040    -0.7600 ha         1 FGE       0.172000
     26 H2           3.1880    -0.0860     1.1730 ha         1 FGE       0.185000
     27 H3          -2.8250     0.5460     0.9850 h4         1 FGE       0.082800
     28 H4           0.9780    -2.5440    -3.1520 hc         1 FGE       0.064033
     29 H5          -0.1480    -1.3680    -2.4630 hc         1 FGE       0.064033
     30 H6           0.8260    -2.3890    -1.3970 hc         1 FGE       0.064033
     31 H7           5.3010     1.3940    -6.8220 hc         1 FGE       0.072700
     32 H8           5.4460    -0.3070    -7.2860 hc         1 FGE       0.072700
     33 H9           6.5140     0.3670    -6.0460 hc         1 FGE       0.072700
     34 H10          5.1770     1.3990    -4.0470 hn         1 FGE       0.342500
     35 H11          1.6690     2.1040     4.0200 hn         1 FGE       0.496800
     36 H12          1.2720     1.2900     5.3810 hn         1 FGE       0.496800
     37 H173         2.8140     1.7730     5.1390 hn         1 FGE       0.496800
@<TRIPOS>BOND
     1    10     5 1
     2    16     5 1
     3    16     6 2
     4    12     6 1
     5    12     8 1
     6    11     8 1
     7     5     4 2
     8     6    23 1
     9     8    20 2
    10     4    23 1
    11     4     3 1
    12     1    14 ar
    13     1     3 ar
    14     9    14 1
    15     9    17 2
    16    14    13 ar
    17     3     2 ar
    18    17     7 1
    19    13     7 1
    20    13    15 ar
    21     2    15 ar
    22     7    19 2
    23    15    24 1
    24    21    24 2
    25    24    18 1
    26    24    22 2
    27     1    25 1
    28     2    26 1
    29     9    27 1
    30    10    28 1
    31    10    29 1
    32    10    30 1
    33    11    31 1
    34    11    32 1
    35    11    33 1
    36    12    34 1
    37    18    35 1
    38    18    36 1
    39    37    18 1
@<TRIPOS>SUBSTRUCTURE
     1 FGE         1 TEMP              0 ****  ****    0 ROOT
