@<TRIPOS>MOLECULE
molecule
   62    61     1     0     0
SMALL
bcc


@<TRIPOS>ATOM
      1 C01          0.0000     0.0000     0.0000 c3         1 FGG       0.244600
      2 F01         -0.2730    -1.0660     2.2180 f          1 FGG      -0.183500
      3 O01          1.4290     0.0000     0.0000 os         1 FGG      -0.588200
      4 C02         -0.5030     0.0000     1.4210 c2         1 FGG       0.156300
      5 P02          2.3060    -0.0000    -1.3500 p5         1 FGG       1.424800
      6 C03         -1.1630     1.0370     1.8830 c2         1 FGG      -0.252400
      7 O03          3.8670    -0.1320    -0.9760 os         1 FGG      -0.713800
      8 C04         -1.7610     0.9920     3.2660 c3         1 FGG      -0.017200
      9 P04          5.1920    -0.4900    -1.8180 p5         1 FGG       1.312900
     10 C05         -0.7890     1.6290     4.2620 c3         1 FGG      -0.050200
     11 O05          4.8890    -1.5770    -2.7750 o          1 FGG      -0.833500
     12 C06         -1.3880     1.5850     5.6450 c2         1 FGG      -0.167200
     13 O06          1.9030    -1.1430    -2.2000 o          1 FGG      -0.852000
     14 C07         -0.7730     0.9390     6.6050 c2         1 FGG      -0.153400
     15 O07          2.0610     1.3760    -2.1490 o          1 FGG      -0.852000
     16 C08         -1.3160     0.9790     8.0090 c3         1 FGG      -0.030200
     17 O08          5.6840     0.8130    -2.6230 o          1 FGG      -0.833500
     18 C09         -2.2010    -0.2470     8.2480 c3         1 FGG      -0.047200
     19 O09          6.3530    -0.9710    -0.8110 o          1 FGG      -0.833500
     20 C10         -2.7450    -0.2070     9.6530 c2         1 FGG      -0.181200
     21 C11         -4.0370    -0.1230     9.8530 c2         1 FGG      -0.136400
     22 C12         -4.5830    -0.1040    11.2580 c3         1 FGG      -0.063200
     23 C13         -4.7900     1.3450    11.7040 c3         1 FGG      -0.054200
     24 C14         -5.3360     1.3630    13.1090 c2         1 FGG      -0.543200
     25 C15         -4.6430     1.9180    14.0730 c2         1 FGG      -0.110400
     26 C16         -1.3240     2.2690     1.0320 c3         1 FGG      -0.027900
     27 C17          0.4800     0.1560     6.3040 c3         1 FGG      -0.049900
     28 C18         -4.9770    -0.0470     8.6780 c3         1 FGG      -0.048900
     29 C19         -3.2940     2.5210    13.7810 c3         1 FGG      -0.059400
     30 C20         -5.1970     1.9540    15.4740 c3         1 FGG      -0.059400
     31 H01         -0.3610     0.8840    -0.5110 h1         1 FGG       0.040700
     32 H01A        -0.3610    -0.8850    -0.5110 h1         1 FGG       0.040700
     33 H04         -2.6960     1.5410     3.2720 hc         1 FGG       0.031700
     34 H04A        -1.9450    -0.0370     3.5470 hc         1 FGG       0.031700
     35 H05         -0.6060     2.6590     3.9810 hc         1 FGG       0.061200
     36 H05A         0.1450     1.0810     4.2550 hc         1 FGG       0.061200
     37 H06         -2.2870     2.1480     5.8630 ha         1 FGG       0.107000
     38 H08         -1.9020     1.8800     8.1440 hc         1 FGG       0.039200
     39 H08A        -0.4940     0.9740     8.7150 hc         1 FGG       0.039200
     40 H09         -3.0230    -0.2420     7.5420 hc         1 FGG       0.052200
     41 H09A        -1.6150    -1.1470     8.1130 hc         1 FGG       0.052200
     42 H10         -2.0690    -0.2630    10.4980 ha         1 FGG       0.116000
     43 H12         -3.8820    -0.5910    11.9240 hc         1 FGG       0.046700
     44 H12A        -5.5300    -0.6290    11.2840 hc         1 FGG       0.046700
     45 H13         -3.8420     1.8700    11.6770 hc         1 FGG       0.036700
     46 H13A        -5.4910     1.8310    11.0370 hc         1 FGG       0.036700
     47 H14         -4.5840     0.6650    12.7600 ha         1 FGG       0.256000
     48 H16         -1.8760     3.0200     1.5840 hc         1 FGG       0.038700
     49 H16A        -1.8650     2.0150     0.1280 hc         1 FGG       0.038700
     50 H16B        -0.3470     2.6580     0.7710 hc         1 FGG       0.038700
     51 H17          0.2510    -0.6350     5.6000 hc         1 FGG       0.045367
     52 H17A         0.8650    -0.2750     7.2200 hc         1 FGG       0.045367
     53 H17B         1.2240     0.8170     5.8750 hc         1 FGG       0.045367
     54 H18         -4.7830     0.8600     8.1170 hc         1 FGG       0.039700
     55 H18A        -4.8250    -0.9070     8.0370 hc         1 FGG       0.039700
     56 H18B        -6.0000    -0.0380     9.0340 hc         1 FGG       0.039700
     57 H19         -2.6170     1.7440    13.4450 hc         1 FGG       0.023200
     58 H19A        -2.9000     2.9780    14.6800 hc         1 FGG       0.023200
     59 H19B        -3.3940     3.2720    13.0070 hc         1 FGG       0.023200
     60 H20         -5.2520     2.9810    15.8140 hc         1 FGG       0.023200
     61 H20A        -4.5500     1.3880    16.1330 hc         1 FGG       0.023200
     62 H20B        -6.1890     1.5180    15.4800 hc         1 FGG       0.023200
@<TRIPOS>BOND
     1     1     4 1
     2     1     3 1
     3     1    31 1
     4     1    32 1
     5     4     2 1
     6     5     3 1
     7     6     4 2
     8     7     5 1
     9    13     5 1
    10     5    15 1
    11    26     6 1
    12     6     8 1
    13     9     7 1
    14    10     8 1
    15     8    33 1
    16     8    34 1
    17    11     9 1
    18    17     9 1
    19     9    19 1
    20    12    10 1
    21    10    35 1
    22    10    36 1
    23    12    14 2
    24    12    37 1
    25    16    14 1
    26    14    27 1
    27    16    18 1
    28    16    38 1
    29    16    39 1
    30    18    20 1
    31    18    40 1
    32    18    41 1
    33    20    21 2
    34    20    42 1
    35    21    28 1
    36    21    22 1
    37    22    23 1
    38    22    43 1
    39    22    44 1
    40    23    24 1
    41    23    45 1
    42    23    46 1
    43    24    25 2
    44    24    47 1
    45    30    25 1
    46    25    29 1
    47    26    48 1
    48    26    49 1
    49    26    50 1
    50    27    51 1
    51    27    52 1
    52    27    53 1
    53    28    54 1
    54    28    55 1
    55    28    56 1
    56    29    57 1
    57    29    58 1
    58    29    59 1
    59    30    60 1
    60    30    61 1
    61    30    62 1
@<TRIPOS>SUBSTRUCTURE
     1 FGG         1 TEMP              0 ****  ****    0 ROOT
