@<TRIPOS>MOLECULE
molecule
   67    71     1     0     0
SMALL
bcc


@<TRIPOS>ATOM
      1 O1           0.0000     0.0000     0.0000 o          1 FGH      -0.537100
      2 C21          1.2140     0.0000     0.0000 c          1 FGH       0.615700
      3 C22          2.0300     0.0000     1.2840 c3         1 FGH      -0.166400
      4 C23          3.1930     0.9840     1.1160 c3         1 FGH      -0.056000
      5 C26          3.9530     1.0950     2.4400 c3         1 FGH      -0.088600
      6 C25          2.6390     2.3590     0.7370 c3         1 FGH      -0.088600
      7 C24          4.1520     0.5070     0.0220 c3         1 FGH       0.000900
      8 C13          3.3720     0.2310    -1.2380 cc         1 FGH      -0.060600
      9 C14          2.0000    -0.0080    -1.2390 cd         1 FGH      -0.257600
     10 C15          1.6220    -0.2310    -2.6160 cd         1 FGH      -0.069300
     11 C19          0.2710    -0.5230    -3.2150 c3         1 FGH       0.001900
     12 C18          0.3630    -0.2790    -4.7280 c3         1 FGH       0.158800
     13 N2           1.5470    -0.9640    -5.2640 n3         1 FGH      -0.725600
     14 C20          1.4750    -1.0720    -6.7270 c3         1 FGH       0.154100
     15 C17          2.7910    -0.2970    -4.8450 c3         1 FGH       0.247100
     16 C16          2.7580    -0.1260    -3.3450 cc         1 FGH      -0.135600
     17 N1           3.8020     0.1600    -2.5070 na         1 FGH       0.047800
     18 C6           5.1280     0.3360    -2.9130 ca         1 FGH       0.009800
     19 C5           5.4670     1.4220    -3.7140 ca         1 FGH      -0.137000
     20 C7           6.1020    -0.5700    -2.5080 ca         1 FGH      -0.141000
     21 C8           7.4070    -0.3960    -2.9070 ca         1 FGH      -0.045300
     22 C12          8.4810    -1.3630    -2.4820 c3         1 FGH      -0.055100
     23 C11          9.5190    -1.5090    -3.5920 c3         1 FGH       0.108000
     24 N            9.9950    -0.2020    -4.0380 ns         1 FGH      -0.581900
     25 C10          9.1590     0.8520    -4.1330 c          1 FGH       0.719100
     26 O            9.5590     1.9190    -4.5530 o          1 FGH      -0.639500
     27 C9           7.7500     0.6910    -3.7180 ca         1 FGH      -0.144600
     28 C4           6.7730     1.6000    -4.1180 ca         1 FGH      -0.003300
     29 C3           7.1430     2.7750    -4.9870 c3         1 FGH      -0.035100
     30 C1           7.6350     3.9260    -4.1070 c3         1 FGH      -0.063700
     31 C2           8.1260     5.0720    -4.9930 c3         1 FGH      -0.089100
     32 C            6.4850     4.4210    -3.2250 c3         1 FGH      -0.089100
     33 H1           1.4060     0.3120     2.1120 hc         1 FGH       0.069200
     34 H2           2.4190    -0.9940     1.4670 hc         1 FGH       0.069200
     35 H3           4.3170     0.1170     2.7310 hc         1 FGH       0.040367
     36 H4           3.2900     1.4760     3.2070 hc         1 FGH       0.040367
     37 H5           4.7910     1.7710     2.3190 hc         1 FGH       0.040367
     38 H6           1.8580     2.6390     1.4350 hc         1 FGH       0.040367
     39 H7           3.4360     3.0920     0.7740 hc         1 FGH       0.040367
     40 H8           2.2300     2.3200    -0.2650 hc         1 FGH       0.040367
     41 H9           4.8880     1.2770    -0.1710 hc         1 FGH       0.057200
     42 H10          4.6460    -0.4010     0.3470 hc         1 FGH       0.057200
     43 H11         -0.4700     0.1380    -2.7830 hc         1 FGH       0.067200
     44 H12          0.0040    -1.5550    -3.0270 hc         1 FGH       0.067200
     45 H13         -0.5260    -0.6680    -5.2100 h1         1 FGH       0.036700
     46 H14          0.4460     0.7840    -4.9170 h1         1 FGH       0.036700
     47 H16          2.3680    -1.5630    -7.0970 h1         1 FGH       0.033033
     48 H17          0.6030    -1.6510    -7.0040 h1         1 FGH       0.033033
     49 H18          1.4030    -0.0810    -7.1590 h1         1 FGH       0.033033
     50 H19          2.8610     0.6740    -5.3200 h1         1 FGH       0.042200
     51 H20          3.6410    -0.9080    -5.1220 h1         1 FGH       0.042200
     52 H21          4.7010     2.1150    -4.0390 ha         1 FGH       0.153000
     53 H22          5.8220    -1.4490    -1.9400 ha         1 FGH       0.149000
     54 H23          8.9630    -0.9910    -1.5870 hc         1 FGH       0.066200
     55 H24          8.0330    -2.3290    -2.2810 hc         1 FGH       0.066200
     56 H25          9.0710    -2.0280    -4.4310 h1         1 FGH       0.049200
     57 H26         10.3580    -2.0830    -3.2190 h1         1 FGH       0.049200
     58 H27         10.9590    -0.0870    -4.2790 hn         1 FGH       0.330500
     59 H28          7.9300     2.4840    -5.6720 hc         1 FGH       0.062200
     60 H29          6.2750     3.0960    -5.5490 hc         1 FGH       0.062200
     61 H30          8.4480     3.5800    -3.4800 hc         1 FGH       0.072700
     62 H31          7.2920     5.4830    -5.5480 hc         1 FGH       0.033367
     63 H32          8.5640     5.8460    -4.3730 hc         1 FGH       0.033367
     64 H33          8.8720     4.6990    -5.6850 hc         1 FGH       0.033367
     65 H34          6.7010     5.4250    -2.8810 hc         1 FGH       0.033367
     66 H35          5.5660     4.4260    -3.7990 hc         1 FGH       0.033367
     67 H36          6.3750     3.7630    -2.3720 hc         1 FGH       0.033367
@<TRIPOS>BOND
     1    31    30 1
     2     6     4 1
     3    26    25 2
     4    29    30 1
     5    29    28 1
     6    30    32 1
     7    28    19 ar
     8    28    27 ar
     9    25    27 1
    10    25    24 1
    11     5     4 1
    12     4     7 1
    13     4     3 1
    14    19    18 ar
    15    27    21 ar
    16     7     8 1
    17    24    23 1
    18     3     2 1
    19    18    17 1
    20    18    20 ar
    21     8    17 1
    22     8     9 2
    23    21    20 ar
    24    21    22 1
    25     2     1 2
    26     2     9 1
    27    17    16 1
    28     9    10 1
    29    16    10 2
    30    16    15 1
    31    22    23 1
    32    10    11 1
    33    15    13 1
    34    11    12 1
    35    12    13 1
    36    13    14 1
    37     3    33 1
    38     3    34 1
    39     5    35 1
    40     5    36 1
    41     5    37 1
    42     6    38 1
    43     6    39 1
    44     6    40 1
    45     7    41 1
    46     7    42 1
    47    11    43 1
    48    11    44 1
    49    12    45 1
    50    12    46 1
    51    14    47 1
    52    14    48 1
    53    14    49 1
    54    15    50 1
    55    15    51 1
    56    19    52 1
    57    20    53 1
    58    22    54 1
    59    22    55 1
    60    23    56 1
    61    23    57 1
    62    24    58 1
    63    29    59 1
    64    29    60 1
    65    30    61 1
    66    31    62 1
    67    31    63 1
    68    31    64 1
    69    32    65 1
    70    32    66 1
    71    32    67 1
@<TRIPOS>SUBSTRUCTURE
     1 FGH         1 TEMP              0 ****  ****    0 ROOT
