@<TRIPOS>MOLECULE
FGH
   67    71     1     0     0
SMALL
bcc


@<TRIPOS>ATOM
      1 O1           0.0000     0.0000     0.0000 o          1 FGH      -0.575100
      2 C21          1.2140     0.0000     0.0000 c          1 FGH       0.675700
      3 C22          2.0300     0.0000     1.2840 c3         1 FGH      -0.113400
      4 C23          3.1930     0.9840     1.1160 c3         1 FGH      -0.057000
      5 C26          3.9530     1.0950     2.4400 c3         1 FGH      -0.003100
      6 C25          2.6390     2.3590     0.7370 c3         1 FGH      -0.003100
      7 C24          4.1520     0.5070     0.0220 c3         1 FGH       0.083900
      8 C13          3.3720     0.2310    -1.2380 cc         1 FGH      -0.285600
      9 C14          2.0000    -0.0080    -1.2390 cd         1 FGH      -0.266600
     10 C15          1.6220    -0.2310    -2.6160 cd         1 FGH      -0.051300
     11 C19          0.2710    -0.5230    -3.2150 c3         1 FGH       0.069900
     12 C18          0.3630    -0.2790    -4.7280 c3         1 FGH       0.150800
     13 N2           1.5470    -0.9640    -5.2640 n3         1 FGH      -0.539600
     14 C20          1.4750    -1.0720    -6.7270 c3         1 FGH       0.187100
     15 C17          2.7910    -0.2970    -4.8450 c3         1 FGH       0.271100
     16 C16          2.7580    -0.1260    -3.3450 cc         1 FGH      -0.364600
     17 N1           3.8020     0.1600    -2.5070 na         1 FGH       0.621800
     18 C6           5.1280     0.3360    -2.9130 ca         1 FGH      -0.180200
     19 C5           5.4670     1.4220    -3.7140 ca         1 FGH      -0.100000
     20 C7           6.1020    -0.5700    -2.5080 ca         1 FGH      -0.100000
     21 C8           7.4070    -0.3960    -2.9070 ca         1 FGH      -0.055300
     22 C12          8.4810    -1.3630    -2.4820 c3         1 FGH       0.017900
     23 C11          9.5190    -1.5090    -3.5920 c3         1 FGH       0.049000
     24 N            9.9950    -0.2020    -4.0380 ns         1 FGH      -0.189900
     25 C10          9.1590     0.8520    -4.1330 c          1 FGH       0.641100
     26 O            9.5590     1.9190    -4.5530 o          1 FGH      -0.676500
     27 C9           7.7500     0.6910    -3.7180 ca         1 FGH      -0.137600
     28 C4           6.7730     1.6000    -4.1180 ca         1 FGH      -0.000300
     29 C3           7.1430     2.7750    -4.9870 c3         1 FGH       0.010900
     30 C1           7.6350     3.9260    -4.1070 c3         1 FGH      -0.047700
     31 C2           8.1260     5.0720    -4.9930 c3         1 FGH       0.001400
     32 C            6.4850     4.4210    -3.2250 c3         1 FGH       0.001400
     33 H1           1.4060     0.3120     2.1120 hc         1 FGH       0.038200
     34 H2           2.4190    -0.9940     1.4670 hc         1 FGH       0.038200
     35 H3           4.3170     0.1170     2.7310 hc         1 FGH       0.010033
     36 H4           3.2900     1.4760     3.2070 hc         1 FGH       0.010033
     37 H5           4.7910     1.7710     2.3190 hc         1 FGH       0.010033
     38 H6           1.8580     2.6390     1.4350 hc         1 FGH       0.010033
     39 H7           3.4360     3.0920     0.7740 hc         1 FGH       0.010033
     40 H8           2.2300     2.3200    -0.2650 hc         1 FGH       0.010033
     41 H9           4.8880     1.2770    -0.1710 hc         1 FGH       0.021700
     42 H10          4.6460    -0.4010     0.3470 hc         1 FGH       0.021700
     43 H11         -0.4700     0.1380    -2.7830 hc         1 FGH       0.032700
     44 H12          0.0040    -1.5550    -3.0270 hc         1 FGH       0.032700
     45 H13         -0.5260    -0.6680    -5.2100 h1         1 FGH       0.009200
     46 H14          0.4460     0.7840    -4.9170 h1         1 FGH       0.009200
     47 H16          2.3680    -1.5630    -7.0970 h1         1 FGH      -0.000300
     48 H17          0.6030    -1.6510    -7.0040 h1         1 FGH      -0.000300
     49 H18          1.4030    -0.0810    -7.1590 h1         1 FGH      -0.000300
     50 H19          2.8610     0.6740    -5.3200 h1         1 FGH       0.007700
     51 H20          3.6410    -0.9080    -5.1220 h1         1 FGH       0.007700
     52 H21          4.7010     2.1150    -4.0390 ha         1 FGH       0.128000
     53 H22          5.8220    -1.4490    -1.9400 ha         1 FGH       0.123000
     54 H23          8.9630    -0.9910    -1.5870 hc         1 FGH       0.032700
     55 H24          8.0330    -2.3290    -2.2810 hc         1 FGH       0.032700
     56 H25          9.0710    -2.0280    -4.4310 h1         1 FGH       0.019200
     57 H26         10.3580    -2.0830    -3.2190 h1         1 FGH       0.019200
     58 H27         10.9590    -0.0870    -4.2790 hn         1 FGH       0.186500
     59 H28          7.9300     2.4840    -5.6720 hc         1 FGH       0.037700
     60 H29          6.2750     3.0960    -5.5490 hc         1 FGH       0.037700
     61 H30          8.4480     3.5800    -3.4800 hc         1 FGH       0.050700
     62 H31          7.2920     5.4830    -5.5480 hc         1 FGH       0.002533
     63 H32          8.5640     5.8460    -4.3730 hc         1 FGH       0.002533
     64 H33          8.8720     4.6990    -5.6850 hc         1 FGH       0.002533
     65 H34          6.7010     5.4250    -2.8810 hc         1 FGH       0.002533
     66 H35          5.5660     4.4260    -3.7990 hc         1 FGH       0.002533
     67 H36          6.3750     3.7630    -2.3720 hc         1 FGH       0.002533
@<TRIPOS>BOND
     1     1     2 2   
     2     2     3 1   
     3     2     9 1   
     4     3     4 1   
     5     3    33 1   
     6     3    34 1   
     7     4     5 1   
     8     4     6 1   
     9     4     7 1   
    10     5    35 1   
    11     5    36 1   
    12     5    37 1   
    13     6    38 1   
    14     6    39 1   
    15     6    40 1   
    16     7     8 1   
    17     7    41 1   
    18     7    42 1   
    19     8     9 2   
    20     8    17 1   
    21     9    10 1   
    22    10    11 1   
    23    10    16 2   
    24    11    12 1   
    25    11    43 1   
    26    11    44 1   
    27    12    13 1   
    28    12    45 1   
    29    12    46 1   
    30    13    14 1   
    31    13    15 1   
    32    14    47 1   
    33    14    48 1   
    34    14    49 1   
    35    15    16 1   
    36    15    50 1   
    37    15    51 1   
    38    16    17 1   
    39    17    18 1   
    40    18    19 ar  
    41    18    20 ar  
    42    19    28 ar  
    43    19    52 1   
    44    20    21 ar  
    45    20    53 1   
    46    21    22 1   
    47    21    27 ar  
    48    22    23 1   
    49    22    54 1   
    50    22    55 1   
    51    23    24 1   
    52    23    56 1   
    53    23    57 1   
    54    24    25 1   
    55    24    58 1   
    56    25    26 2   
    57    25    27 1   
    58    27    28 ar  
    59    28    29 1   
    60    29    30 1   
    61    29    59 1   
    62    29    60 1   
    63    30    31 1   
    64    30    32 1   
    65    30    61 1   
    66    31    62 1   
    67    31    63 1   
    68    31    64 1   
    69    32    65 1   
    70    32    66 1   
    71    32    67 1   
@<TRIPOS>SUBSTRUCTURE
     1 FGH         1 TEMP              0 ****  ****    0 ROOT
