@<TRIPOS>MOLECULE
molecule
   48    47     1     0     0
SMALL
bcc


@<TRIPOS>ATOM
      1 C4           0.0000     0.0000     0.0000 c3         1 FGJ      -0.123400
      2 C2          -2.0410    -0.0000    -1.4420 c3         1 FGJ      -0.083400
      3 C6           3.6290     0.0000     1.0860 c3         1 FGJ       0.155400
      4 C5           1.5070     0.0000     0.0000 c          1 FGJ       0.628100
      5 C8           3.6440     1.1810     3.2880 c3         1 FGJ       0.123400
      6 C           -4.0810    -0.0010    -2.8830 c3         1 FGJ      -0.092100
      7 O4           5.7400    -1.0880     4.3260 o          1 FGJ      -0.560000
      8 C10          4.4320    -2.9850     4.8210 c3         1 FGJ      -0.125400
      9 C11          5.5660    -3.2810     5.8050 c3         1 FGJ      -0.073400
     10 C12          5.2660    -4.5840     6.5500 c3         1 FGJ      -0.083400
     11 C13          6.4000    -4.8810     7.5340 c3         1 FGJ      -0.082400
     12 C14          6.1000    -6.1830     8.2790 c3         1 FGJ      -0.092100
     13 O3           3.8640    -1.2410     3.1670 os         1 FGJ      -0.405900
     14 C7           4.2140     0.0000     2.5000 c3         1 FGJ       0.150100
     15 O1           2.1780     0.0000     1.1620 os         1 FGJ      -0.388900
     16 O            2.1110     0.0010    -1.0470 o          1 FGJ      -0.565000
     17 C3          -0.5110    -0.0000    -1.4420 c3         1 FGJ      -0.073400
     18 C1          -2.5510     0.0000    -2.8840 c3         1 FGJ      -0.082400
     19 H1          -0.3610     0.8840     0.5110 hc         1 FGJ       0.072700
     20 H2          -0.3610    -0.8840     0.5110 hc         1 FGJ       0.072700
     21 H3          -2.4020    -0.8850    -0.9320 hc         1 FGJ       0.040700
     22 H4          -2.4020     0.8840    -0.9310 hc         1 FGJ       0.040700
     23 H5           3.9620    -0.8840     0.5570 h1         1 FGJ       0.059700
     24 H6           3.9620     0.8850     0.5570 h1         1 FGJ       0.059700
     25 H7           3.9770     2.1090     2.8400 h1         1 FGJ       0.033700
     26 H8           3.9880     1.1300     4.3140 h1         1 FGJ       0.033700
     27 H9          -4.4420     0.8860    -2.3780 hc         1 FGJ       0.033033
     28 H10         -4.4410    -0.8830    -2.3670 hc         1 FGJ       0.033033
     29 H11         -4.4430    -0.0080    -3.9050 hc         1 FGJ       0.033033
     30 H12          3.5000    -2.8840     5.3640 hc         1 FGJ       0.074200
     31 H13          4.3490    -3.7970     4.1100 hc         1 FGJ       0.074200
     32 H14          6.4970    -3.3820     5.2620 hc         1 FGJ       0.057700
     33 H15          5.6480    -2.4690     6.5160 hc         1 FGJ       0.057700
     34 H16          4.3340    -4.4830     7.0930 hc         1 FGJ       0.041200
     35 H17          5.1830    -5.3960     5.8380 hc         1 FGJ       0.041200
     36 H18          6.4830    -4.0680     8.2460 hc         1 FGJ       0.042700
     37 H19          7.3320    -4.9820     6.9910 hc         1 FGJ       0.042700
     38 H20          5.1640    -6.0850     8.8160 hc         1 FGJ       0.033367
     39 H21          6.0250    -6.9970     7.5680 hc         1 FGJ       0.033367
     40 H22          6.8990    -6.3900     8.9810 hc         1 FGJ       0.033367
     41 H23          5.2920     0.0900     2.4450 h1         1 FGJ       0.088700
     42 H24          1.8670     1.6990     3.9260 ho         1 FGJ       0.395000
     43 H25         -0.1500     0.8850    -1.9530 hc         1 FGJ       0.057700
     44 H26         -0.1490    -0.8840    -1.9530 hc         1 FGJ       0.057700
     45 H27         -2.1910     0.8860    -3.3940 hc         1 FGJ       0.042700
     46 H28         -2.1890    -0.8830    -3.3960 hc         1 FGJ       0.042700
     47 O2           2.2160     1.1260     3.2630 oh         1 FGJ      -0.582800
     48 C9           4.7270    -1.7020     4.0870 c          1 FGJ       0.628100
@<TRIPOS>BOND
     1    16     4 2
     2     4    15 1
     3     4     1 1
     4    15     3 1
     5     1    17 1
     6    17     2 1
     7     5    47 1
     8     5    14 1
     9     3    14 1
    10    14    13 1
    11     2    18 1
    12    18     6 1
    13    13    48 1
    14     7    48 2
    15    48     8 1
    16     8     9 1
    17     9    10 1
    18    10    11 1
    19    11    12 1
    20     1    19 1
    21     1    20 1
    22     2    21 1
    23     2    22 1
    24     3    23 1
    25     3    24 1
    26     5    25 1
    27     5    26 1
    28     6    27 1
    29     6    28 1
    30     6    29 1
    31     8    30 1
    32     8    31 1
    33     9    32 1
    34     9    33 1
    35    10    34 1
    36    10    35 1
    37    11    36 1
    38    11    37 1
    39    12    38 1
    40    12    39 1
    41    12    40 1
    42    14    41 1
    43    47    42 1
    44    17    43 1
    45    17    44 1
    46    18    45 1
    47    18    46 1
@<TRIPOS>SUBSTRUCTURE
     1 FGJ         1 TEMP              0 ****  ****    0 ROOT
