@<TRIPOS>MOLECULE
molecule
   59    58     1     0     0
SMALL
bcc


@<TRIPOS>ATOM
      1 CBU          0.0000     0.0000     0.0000 c3         1 FGM      -0.092100
      2 CBV          1.5300     0.0000     0.0000 c3         1 FGM      -0.084400
      3 CBW          2.0390     0.0000     1.4430 c3         1 FGM      -0.082400
      4 CBX          3.5690     0.0000     1.4430 c3         1 FGM      -0.082400
      5 CBY          4.0800     0.0000     2.8850 c3         1 FGM      -0.082400
      6 CBZ          5.6090     0.0010     2.8860 c3         1 FGM      -0.082400
      7 CCA          6.1200     0.0000     4.3290 c3         1 FGM      -0.083400
      8 CCB          7.6490     0.0000     4.3280 c3         1 FGM      -0.079400
      9 CCC          8.1590     0.0010     5.7710 c3         1 FGM      -0.082400
     10 CCD          9.6890     0.0010     5.7710 c3         1 FGM      -0.104400
     11 CCE         10.1990     0.0020     7.2140 c3         1 FGM       0.175100
     12 OCF          9.8210    -1.2200     7.8520 oh         1 FGM      -0.570800
     13 CCG         11.7240     0.1270     7.2150 c3         1 FGM      -0.181700
     14 CCH         12.2330     0.1270     8.6590 c3         1 FGM      -0.048400
     15 CCI         13.7430     0.3780     8.6660 c3         1 FGM      -0.095400
     16 CCJ         14.2530     0.3780    10.1090 c3         1 FGM      -0.082400
     17 CCK         15.7610     0.6290    10.1160 c3         1 FGM      -0.078400
     18 CCL         16.2720     0.6290    11.5590 c3         1 FGM      -0.086400
     19 CCM         17.7810     0.8790    11.5670 c3         1 FGM      -0.092100
     20 CCQ         12.3250    -1.0360     6.4710 c          1 FGM       0.902600
     21 OCR         11.6070    -1.8800     5.9870 o          1 FGM      -0.843800
     22 OCS         13.6570    -1.1360     6.3440 o          1 FGM      -0.843800
     23 HBU         -0.3610    -0.0000    -1.0210 hc         1 FGM       0.029700
     24 HBUA        -0.3610    -0.8850     0.5110 hc         1 FGM       0.029700
     25 HBUB        -0.3610     0.8850     0.5110 hc         1 FGM       0.029700
     26 HBV          1.8910    -0.8850    -0.5110 hc         1 FGM       0.039200
     27 HBVA         1.8910     0.8850    -0.5110 hc         1 FGM       0.039200
     28 HBW          1.6780    -0.8850     1.9530 hc         1 FGM       0.039200
     29 HBWA         1.6780     0.8850     1.9530 hc         1 FGM       0.039200
     30 HBX          3.9300     0.8840     0.9320 hc         1 FGM       0.040700
     31 HBXA         3.9300    -0.8850     0.9320 hc         1 FGM       0.040700
     32 HBY          3.7190    -0.8840     3.3960 hc         1 FGM       0.038200
     33 HBYA         3.7180     0.8850     3.3960 hc         1 FGM       0.038200
     34 HBZ          5.9700     0.8860     2.3760 hc         1 FGM       0.040200
     35 HBZA         5.9710    -0.8830     2.3750 hc         1 FGM       0.040200
     36 HCA          5.7590     0.8850     4.8400 hc         1 FGM       0.035700
     37 HCAA         5.7590    -0.8840     4.8390 hc         1 FGM       0.035700
     38 HCB          8.0100     0.8850     3.8170 hc         1 FGM       0.042200
     39 HCBA         8.0100    -0.8850     3.8180 hc         1 FGM       0.042200
     40 HCC          7.7980     0.8860     6.2810 hc         1 FGM       0.029200
     41 HCCA         7.7980    -0.8830     6.2820 hc         1 FGM       0.029200
     42 HCD         10.0500    -0.8840     5.2610 hc         1 FGM       0.074700
     43 HCDA        10.0500     0.8850     5.2600 hc         1 FGM       0.074700
     44 HCE          9.7670     0.8390     7.7500 h1         1 FGM      -0.012300
     45 HOCF         9.1960    -1.0380     8.5350 ho         1 FGM       0.360000
     46 HCG         12.0100     1.0530     6.7310 hc         1 FGM       0.043700
     47 HCH         12.0240    -0.8320     9.1160 hc         1 FGM       0.018700
     48 HCHA        11.7350     0.9100     9.2180 hc         1 FGM       0.018700
     49 HCI         13.9520     1.3370     8.2080 hc         1 FGM       0.074700
     50 HCIA        14.2410    -0.4050     8.1070 hc         1 FGM       0.074700
     51 HCJ         14.0440    -0.5810    10.5660 hc         1 FGM       0.024200
     52 HCJA        13.7540     1.1610    10.6670 hc         1 FGM       0.024200
     53 HCK         15.9700     1.5890     9.6590 hc         1 FGM       0.042700
     54 HCKA        16.2600    -0.1530     9.5560 hc         1 FGM       0.042700
     55 HCL         15.7730     1.4110    12.1180 hc         1 FGM       0.032700
     56 HCLA        16.0630    -0.3310    12.0150 hc         1 FGM       0.032700
     57 HCM         18.2800     0.0970    11.0070 hc         1 FGM       0.025367
     58 HCMA        18.1420     0.8790    12.5880 hc         1 FGM       0.025367
     59 HCMB        17.9900     1.8390    11.1100 hc         1 FGM       0.025367
@<TRIPOS>BOND
     1     1     2 1
     2     2     3 1
     3     3     4 1
     4     4     5 1
     5     5     6 1
     6     6     7 1
     7     7     8 1
     8     8     9 1
     9     9    10 1
    10    10    11 1
    11    11    12 1
    12    11    13 1
    13    13    14 1
    14    13    20 1
    15    14    15 1
    16    15    16 1
    17    16    17 1
    18    17    18 1
    19    18    19 1
    20    20    21 1
    21    20    22 1
    22     1    23 1
    23     1    24 1
    24     1    25 1
    25     2    26 1
    26     2    27 1
    27     3    28 1
    28     3    29 1
    29     4    30 1
    30     4    31 1
    31     5    32 1
    32     5    33 1
    33     6    34 1
    34     6    35 1
    35     7    36 1
    36     7    37 1
    37     8    38 1
    38     8    39 1
    39     9    40 1
    40     9    41 1
    41    10    42 1
    42    10    43 1
    43    11    44 1
    44    12    45 1
    45    13    46 1
    46    14    47 1
    47    14    48 1
    48    15    49 1
    49    15    50 1
    50    16    51 1
    51    16    52 1
    52    17    53 1
    53    17    54 1
    54    18    55 1
    55    18    56 1
    56    19    57 1
    57    19    58 1
    58    19    59 1
@<TRIPOS>SUBSTRUCTURE
     1 FGM         1 TEMP              0 ****  ****    0 ROOT
