@<TRIPOS>MOLECULE
FGM
   59    58     1     0     0
SMALL
bcc


@<TRIPOS>ATOM
      1 CBU         0.0170    0.0060   -0.0500 c3        1 FGM     -0.091100
      2 CBV         1.5180   -0.1120   -0.0010 c3        1 FGM     -0.080400
      3 CBW         2.0440    0.0420    1.4100 c3        1 FGM     -0.079400
      4 CBX         3.5520   -0.0770    1.4540 c3        1 FGM     -0.079400
      5 CBY         4.0770    0.0770    2.8650 c3        1 FGM     -0.078400
      6 CBZ         5.5850   -0.0430    2.9080 c3        1 FGM     -0.079400
      7 CCA         6.1110    0.1100    4.3190 c3        1 FGM     -0.078400
      8 CCB         7.6190   -0.0090    4.3630 c3        1 FGM     -0.078400
      9 CCC         8.1450    0.1380    5.7740 c3        1 FGM     -0.073400
     10 CCD         9.6520    0.0260    5.8160 c3        1 FGM     -0.115400
     11 CCE        10.1750    0.0540    7.2530 c3        1 FGM      0.180100
     12 OCF         9.6620   -1.0410    7.9920 oh        1 FGM     -0.649800
     13 CCG        11.7040    0.1030    7.2580 c3        1 FGM     -0.220700
     14 CCH        12.2220    0.1370    8.6850 c3        1 FGM     -0.048400
     15 CCI        13.6900    0.5040    8.7300 c3        1 FGM     -0.088400
     16 CCJ        14.2650    0.3170   10.1170 c3        1 FGM     -0.074400
     17 CCK        15.7250    0.7130   10.1650 c3        1 FGM     -0.079400
     18 CCL        16.3090    0.5120   11.5470 c3        1 FGM     -0.080400
     19 CCM        17.7620    0.9080   11.6000 c3        1 FGM     -0.090100
     20 CCQ        12.3270   -1.0990    6.5050 c         1 FGM      0.914600
     21 OCR        11.7590   -2.2290    6.5890 o         1 FGM     -0.845300
     22 OCS        13.3820   -0.8950    5.8420 o         1 FGM     -0.845300
     23 HBU        -0.3120    1.0040    0.3300 hc        1 FGM      0.029367
     24 HBUA       -0.4610   -0.7820    0.5810 hc        1 FGM      0.029367
     25 HBUB       -0.3500   -0.1110   -1.0980 hc        1 FGM      0.029367
     26 HBV         1.9790    0.6710   -0.6590 hc        1 FGM      0.038200
     27 HBVA        1.8310   -1.1100   -0.4090 hc        1 FGM      0.038200
     28 HBW         1.5850   -0.7420    2.0690 hc        1 FGM      0.037700
     29 HBWA        1.7340    1.0400    1.8190 hc        1 FGM      0.037700
     30 HBX         4.0110    0.7060    0.7940 hc        1 FGM      0.038700
     31 HBXA        3.8620   -1.0750    1.0440 hc        1 FGM      0.038700
     32 HBY         3.7670    1.0740    3.2740 hc        1 FGM      0.036700
     33 HBYA        3.6190   -0.7070    3.5240 hc        1 FGM      0.036700
     34 HBZ         6.0440    0.7400    2.2490 hc        1 FGM      0.038700
     35 HBZA        5.8960   -1.0410    2.4990 hc        1 FGM      0.038700
     36 HCA         5.8000    1.1070    4.7300 hc        1 FGM      0.034700
     37 HCAA        5.6540   -0.6740    4.9780 hc        1 FGM      0.034700
     38 HCB         7.9300   -1.0060    3.9510 hc        1 FGM      0.038200
     39 HCBA        8.0780    0.7760    3.7060 hc        1 FGM      0.038200
     40 HCC         7.8260    1.1290    6.1920 hc        1 FGM      0.036200
     41 HCCA        7.7040   -0.6570    6.4330 hc        1 FGM      0.036200
     42 HCD        10.1160    0.8670    5.2400 hc        1 FGM      0.057200
     43 HCDA        9.9850   -0.9380    5.3440 hc        1 FGM      0.057200
     44 HCE         9.7620    0.9600    7.7860 h1        1 FGM      0.021700
     45 HOCF       10.1440   -1.8330    7.6950 ho        1 FGM      0.449000
     46 HCG        12.0230    1.0390    6.7260 hc        1 FGM      0.042700
     47 HCH        12.0610   -0.8730    9.1460 hc        1 FGM      0.027200
     48 HCHA       11.6300    0.8760    9.2880 hc        1 FGM      0.027200
     49 HCI        13.8210    1.5710    8.4100 hc        1 FGM      0.055700
     50 HCIA       14.2450   -0.1330    7.9860 hc        1 FGM      0.055700
     51 HCJ        13.6840    0.9310   10.8550 hc        1 FGM      0.029700
     52 HCJA       14.1570   -0.7570   10.4240 hc        1 FGM      0.029700
     53 HCK        15.8340    1.7880    9.8640 hc        1 FGM      0.039200
     54 HCKA       16.3010    0.1020    9.4200 hc        1 FGM      0.039200
     55 HCL        16.2020   -0.5650   11.8440 hc        1 FGM      0.033200
     56 HCLA       15.7270    1.1180   12.2910 hc        1 FGM      0.033200
     57 HCM        17.8870    1.9850   11.3320 hc        1 FGM      0.025367
     58 HCMA       18.1740    0.7500   12.6260 hc        1 FGM      0.025367
     59 HCMB       18.3620    0.2980   10.8810 hc        1 FGM      0.025367
@<TRIPOS>BOND
     1    1    2 1   
     2    1   23 1   
     3    1   24 1   
     4    1   25 1   
     5    2    3 1   
     6    2   26 1   
     7    2   27 1   
     8    3    4 1   
     9    3   28 1   
    10    3   29 1   
    11    4    5 1   
    12    4   30 1   
    13    4   31 1   
    14    5    6 1   
    15    5   32 1   
    16    5   33 1   
    17    6    7 1   
    18    6   34 1   
    19    6   35 1   
    20    7    8 1   
    21    7   36 1   
    22    7   37 1   
    23    8    9 1   
    24    8   38 1   
    25    8   39 1   
    26    9   10 1   
    27    9   40 1   
    28    9   41 1   
    29   10   11 1   
    30   10   42 1   
    31   10   43 1   
    32   11   12 1   
    33   11   13 1   
    34   11   44 1   
    35   12   45 1   
    36   13   14 1   
    37   13   20 1   
    38   13   46 1   
    39   14   15 1   
    40   14   47 1   
    41   14   48 1   
    42   15   16 1   
    43   15   49 1   
    44   15   50 1   
    45   16   17 1   
    46   16   51 1   
    47   16   52 1   
    48   17   18 1   
    49   17   53 1   
    50   17   54 1   
    51   18   19 1   
    52   18   55 1   
    53   18   56 1   
    54   19   57 1   
    55   19   58 1   
    56   19   59 1   
    57   20   21 1   
    58   20   22 1   
@<TRIPOS>SUBSTRUCTURE
     1 FGM         1 TEMP              0 ****  ****    0 ROOT
