@<TRIPOS>MOLECULE
FGN
   35    38     1     0     0
SMALL
bcc


@<TRIPOS>ATOM
      1 C1           0.0000     0.0000     0.0000 c2         1 FGN      -0.221000
      2 C2           1.3500     0.0000     0.0000 c2         1 FGN       0.017000
      3 C3           2.0850     0.0000     1.2720 c3         1 FGN      -0.077000
      4 C4           1.3900    -0.0070     2.4860 c2         1 FGN      -0.098000
      5 C5           2.0870    -0.0080     3.6750 c2         1 FGN      -0.124000
      6 C6           3.4720    -0.0020     3.6750 c2         1 FGN      -0.071000
      7 C7           4.1720     0.0050     2.4830 c2         1 FGN      -0.193000
      8 C8           3.4890    -0.0000     1.2760 c2         1 FGN       0.084000
      9 C9           5.6010     0.0020     0.1890 c3         1 FGN       0.086000
     10 O1           4.1750     0.0010     0.1060 os         1 FGN      -0.160000
     11 C10          6.1860     0.0020    -1.1990 ca         1 FGN      -0.097000
     12 C11          6.4540     1.2000    -1.8370 ca         1 FGN      -0.082000
     13 C12          6.9910     1.2010    -3.1120 ca         1 FGN      -0.101000
     14 C13          7.2600     0.0040    -3.7490 ca         1 FGN      -0.069000
     15 C14          6.9920    -1.1940    -3.1130 ca         1 FGN      -0.101000
     16 C15          6.4600    -1.1950    -1.8360 ca         1 FGN      -0.082000
     17 N           -2.0790    -0.0000    -1.2650 n7         1 FGN       0.085000
     18 C           -0.7310    -0.0000    -1.2660 c3         1 FGN       0.271000
     19 O           -0.1230     0.0020    -2.3200 o          1 FGN      -0.402000
     20 O2          -2.7870     0.0010    -2.4920 oh         1 FGN      -0.242000
     21 Cl           6.1160     2.7040    -1.0370 cl         1 FGN       0.069000
     22 Cl1          6.1240    -2.6990    -1.0370 cl         1 FGN       0.069000
     23 H1          -0.1460    -0.8750    -0.6220 DU         1 FGN       0.104000
     24 H2           1.4950     0.8740     0.6230 DU         1 FGN       0.151000
     25 H3           0.3070    -0.0120     2.4920 ha         1 FGN       0.123000
     26 H4           1.5480    -0.0130     4.6150 ha         1 FGN       0.108000
     27 H5           4.0110    -0.0000     4.6150 ha         1 FGN       0.103000
     28 H6           5.2550     0.0070     2.4920 ha         1 FGN       0.123000
     29 H7           5.9310     0.8860     0.7200 h1         1 FGN       0.057500
     30 H8           5.9320    -0.8830     0.7200 h1         1 FGN       0.057500
     31 H9           7.2000     2.1390    -3.6110 ha         1 FGN       0.118000
     32 H10          7.6790     0.0050    -4.7480 ha         1 FGN       0.109000
     33 H11          7.2050    -2.1320    -3.6120 ha         1 FGN       0.118000
     34 H12         -2.5790     0.0260    -0.3990 hn         1 FGN       0.075000
     35 H13         -3.7100     0.1000    -2.3220 ho         1 FGN       0.191000
@<TRIPOS>BOND
     1     1     2 1   
     2     1    18 1   
     3     1    23 1   
     4     2     3 1   
     5     2    24 1   
     6     3     4 1   
     7     3     8 1   
     8     3    24 1   
     9     4     5 1   
    10     4    25 1   
    11     5     6 1   
    12     5    26 1   
    13     6     7 1   
    14     6    27 1   
    15     7     8 1   
    16     7    28 1   
    17     8    10 1   
    18     9    10 1   
    19     9    11 1   
    20     9    29 1   
    21     9    30 1   
    22    11    12 1   
    23    11    16 1   
    24    12    13 1   
    25    12    21 1   
    26    13    14 1   
    27    13    31 1   
    28    14    15 1   
    29    14    32 1   
    30    15    16 1   
    31    15    33 1   
    32    16    22 1   
    33    17    18 1   
    34    17    20 1   
    35    17    34 1   
    36    18    19 1   
    37    18    23 1   
    38    20    35 1   
@<TRIPOS>SUBSTRUCTURE
     1 FGN         1 TEMP              0 ****  ****    0 ROOT
