@<TRIPOS>MOLECULE
molecule
   35    36     1     0     0
SMALL
bcc


@<TRIPOS>ATOM
      1 C1           0.0000     0.0000     0.0000 ce         1 FGN      -0.273200
      2 C2           1.3500     0.0000     0.0000 cf         1 FGN       0.009800
      3 C3           2.0850     0.0000     1.2720 ca         1 FGN      -0.113800
      4 C4           1.3900    -0.0070     2.4860 ca         1 FGN      -0.075000
      5 C5           2.0870    -0.0080     3.6750 ca         1 FGN      -0.172000
      6 C6           3.4720    -0.0020     3.6750 ca         1 FGN      -0.073000
      7 C7           4.1720     0.0050     2.4830 ca         1 FGN      -0.227000
      8 C8           3.4890    -0.0000     1.2760 ca         1 FGN       0.173100
      9 C9           5.6010     0.0020     0.1890 c3         1 FGN       0.179700
     10 O1           4.1750     0.0010     0.1060 os         1 FGN      -0.310900
     11 C10          6.1860     0.0020    -1.1990 ca         1 FGN      -0.086300
     12 C11          6.4540     1.2000    -1.8370 ca         1 FGN       0.058400
     13 C12          6.9910     1.2010    -3.1120 ca         1 FGN      -0.123000
     14 C13          7.2600     0.0040    -3.7490 ca         1 FGN      -0.099000
     15 C14          6.9920    -1.1940    -3.1130 ca         1 FGN      -0.123000
     16 C15          6.4600    -1.1950    -1.8360 ca         1 FGN       0.058400
     17 N           -2.0790    -0.0000    -1.2650 ns         1 FGN      -0.472400
     18 C           -0.7310    -0.0000    -1.2660 c          1 FGN       0.682300
     19 O           -0.1230     0.0020    -2.3200 o          1 FGN      -0.584100
     20 O2          -2.7870     0.0010    -2.4920 oh         1 FGN      -0.363100
     21 Cl           6.1160     2.7040    -1.0370 cl         1 FGN      -0.089400
     22 Cl1          6.1240    -2.6990    -1.0370 cl         1 FGN      -0.089400
     23 H1          -0.5420     0.0000     0.9380 ha         1 FGN       0.123000
     24 H2           1.8920    -0.0000    -0.9380 ha         1 FGN       0.174000
     25 H3           0.3070    -0.0120     2.4920 ha         1 FGN       0.137000
     26 H4           1.5480    -0.0130     4.6150 ha         1 FGN       0.133000
     27 H5           4.0110    -0.0000     4.6150 ha         1 FGN       0.132000
     28 H6           5.2550     0.0070     2.4920 ha         1 FGN       0.139000
     29 H7           5.9320    -0.8830     0.7200 h1         1 FGN       0.056700
     30 H8           5.9310     0.8860     0.7200 h1         1 FGN       0.056700
     31 H9           7.2000     2.1390    -3.6110 ha         1 FGN       0.151000
     32 H10          7.6790     0.0050    -4.7480 ha         1 FGN       0.146000
     33 H11          7.2050    -2.1320    -3.6120 ha         1 FGN       0.151000
     34 H12         -2.5790    -0.0230    -0.3990 hn         1 FGN       0.317500
     35 H13         -3.7120     0.0710    -2.3210 ho         1 FGN       0.396000
@<TRIPOS>BOND
     1     5     4 ar
     2     5     6 ar
     3     4     3 ar
     4     6     7 ar
     5    17    20 1
     6    17    18 1
     7     1     2 2
     8     1    18 1
     9     3     2 1
    10     3     8 ar
    11     7     8 ar
    12    18    19 2
    13     8    10 1
    14    22    16 1
    15    10     9 1
    16    16    15 ar
    17    16    11 ar
    18     9    11 1
    19    15    14 ar
    20    11    12 ar
    21    14    13 ar
    22    12    13 ar
    23    12    21 1
    24     1    23 1
    25     2    24 1
    26     4    25 1
    27     5    26 1
    28     6    27 1
    29     7    28 1
    30     9    29 1
    31     9    30 1
    32    13    31 1
    33    14    32 1
    34    15    33 1
    35    17    34 1
    36    20    35 1
@<TRIPOS>SUBSTRUCTURE
     1 FGN         1 TEMP              0 ****  ****    0 ROOT
