@<TRIPOS>MOLECULE
molecule
   34    36     1     0     0
SMALL
bcc


@<TRIPOS>ATOM
      1 C4           0.0000     0.0000     0.0000 ca         1 FGQ      -0.272500
      2 C5           1.4040     0.0000     0.0000 ca         1 FGQ      -0.081300
      3 C6           2.1090     0.0000     1.2300 ca         1 FGQ       0.396600
      4 C8           4.1290    -0.0010     0.1130 ca         1 FGQ       0.430200
      5 C10          2.1350    -0.0010    -1.2030 ca         1 FGQ      -0.105000
      6 C13          0.3990    -1.6370    -3.2870 ca         1 FGQ      -0.026000
      7 C15         -0.0900    -3.9670    -3.5430 ca         1 FGQ      -0.022300
      8 C17         -1.3090    -2.6550    -1.9540 ca         1 FGQ      -0.026000
      9 C1           1.3800     0.0000     2.4360 ca         1 FGQ       0.091800
     10 C12         -0.5760    -1.5390    -2.3120 ca         1 FGQ      -0.306500
     11 C14          0.6400    -2.8500    -3.9050 ca         1 FGQ      -0.149000
     12 C16         -1.0610    -3.8700    -2.5640 ca         1 FGQ      -0.149000
     13 C2           0.0030     0.0010     2.3980 ca         1 FGQ       0.071900
     14 C3          -0.6770    -0.0010     1.1820 ca         1 FGQ      -0.027000
     15 C9           3.4990    -0.0020    -1.1300 ca         1 FGQ      -0.229300
     16 F21         -0.6970     0.0010     3.5530 f          1 FGQ      -0.124900
     17 N7           3.4450    -0.0010     1.2320 nb         1 FGQ      -0.656000
     18 O22          2.0320    -0.0000     3.6290 oh         1 FGQ      -0.488100
     19 S11         -0.8820     0.0070    -1.5250 sy         1 FGQ       1.297600
     20 H1           5.2110    -0.0010     0.1570 h4         1 FGQ       0.030100
     21 H2           1.6290    -0.0010    -2.1620 ha         1 FGQ       0.163000
     22 H3           0.9720    -0.7620    -3.5690 ha         1 FGQ       0.149500
     23 H4          -2.0710    -2.5790    -1.1880 ha         1 FGQ       0.149500
     24 H5           1.4020    -2.9260    -4.6710 ha         1 FGQ       0.139500
     25 H6          -1.6340    -4.7450    -2.2820 ha         1 FGQ       0.139500
     26 H7           0.2290    -6.0700    -3.4690 hc         1 FGQ       0.051033
     27 H8           1.1090    -5.2380    -4.7580 hc         1 FGQ       0.051033
     28 H9          -0.6330    -5.5080    -4.9080 hc         1 FGQ       0.051033
     29 H10         -1.7610     0.0000     1.1760 ha         1 FGQ       0.175000
     30 H11          4.0910    -0.0020    -2.0370 ha         1 FGQ       0.144000
     31 H12          2.0350     0.8720     3.9860 ho         1 FGQ       0.434000
     32 C18          0.1720    -5.2880    -4.2170 c3         1 FGQ      -0.057800
     33 O19         -2.2630     0.0200    -1.1880 o          1 FGQ      -0.623300
     34 O20         -0.2710     0.9990    -2.3370 o          1 FGQ      -0.623300
@<TRIPOS>BOND
     1    33    19 2
     2    34    19 2
     3    16    13 1
     4    14    13 ar
     5    14     1 ar
     6    19     1 1
     7    19    10 1
     8    13     9 ar
     9     1     2 ar
    10     9    18 1
    11     9     3 ar
    12     2     3 ar
    13     2     5 ar
    14     3    17 ar
    15    10     8 ar
    16    10     6 ar
    17     5    15 ar
    18     8    12 ar
    19    17     4 ar
    20     6    11 ar
    21    15     4 ar
    22    12     7 ar
    23    11     7 ar
    24     7    32 1
    25     4    20 1
    26     5    21 1
    27     6    22 1
    28     8    23 1
    29    11    24 1
    30    12    25 1
    31    32    26 1
    32    32    27 1
    33    32    28 1
    34    14    29 1
    35    15    30 1
    36    18    31 1
@<TRIPOS>SUBSTRUCTURE
     1 FGQ         1 TEMP              0 ****  ****    0 ROOT
