@<TRIPOS>MOLECULE
FGR
   33    33     1     0     0
SMALL
bcc


@<TRIPOS>ATOM
      1 C1           0.0000     0.0000     0.0000 c3         1 FGR       0.134100
      2 O6          -0.5010     1.1740    -0.6420 oh         1 FGR      -0.562800
      3 C2           1.5450     0.0000     0.0000 c3         1 FGR       0.112100
      4 O8           2.0450     1.1720    -0.6450 oh         1 FGR      -0.557800
      5 C3           1.9200     0.0000     1.4980 c3         1 FGR       0.186500
      6 O4           0.7730    -0.5670     2.1670 os         1 FGR      -0.356600
      7 C5          -0.3780    -0.0020     1.4980 c3         1 FGR       0.146100
      8 C10         -1.6150    -0.8690     1.7410 c3         1 FGR       0.231400
      9 O12         -1.9680    -0.8180     3.1260 os         1 FGR      -0.441200
     10 N19          3.1080    -0.8280     1.7280 ns         1 FGR      -0.151900
     11 C21          4.0050    -0.4740     2.6680 c          1 FGR       0.566100
     12 O22          3.8310     0.5300     3.3250 o          1 FGR      -0.657100
     13 C23          5.2260    -1.3250     2.9040 c3         1 FGR      -0.032000
     14 N24          6.0380    -0.7320     3.9680 ns         1 FGR      -0.190900
     15 P15         -3.2700    -1.7470     3.3080 p5         1 FGR       0.665900
     16 O16         -2.8860    -3.2770     2.9890 o          1 FGR      -0.762167
     17 O17         -4.3300    -1.3000     2.3770 o          1 FGR      -0.762167
     18 O18         -3.8030    -1.6320     4.8230 o          1 FGR      -0.762167
     19 C19          7.1850    -1.3250     4.3520 c          1 FGR       0.607900
     20 O20          7.5460    -2.3510     3.8150 o          1 FGR      -0.685100
     21 H1          -0.3760    -0.8930    -0.4840 h1         1 FGR       0.020700
     22 HO6         -0.9730     0.9300    -1.4210 ho         1 FGR       0.372000
     23 H2           1.9210    -0.8940    -0.4820 h1         1 FGR      -0.007300
     24 HO8          2.5490     0.9230    -1.4020 ho         1 FGR       0.363000
     25 H3           2.0890     1.0140     1.8410 h2         1 FGR       0.065700
     26 H5          -0.5490     1.0110     1.8410 h1         1 FGR       0.031700
     27 H101        -1.3990    -1.8930     1.4620 h1         1 FGR       0.008700
     28 H102        -2.4390    -0.4980     1.1440 h1         1 FGR       0.008700
     29 HN19         3.2430    -1.6660     1.1980 hn         1 FGR       0.164500
     30 H231         5.8100    -1.3800     1.9930 h1         1 FGR       0.035200
     31 H232         4.9200    -2.3220     3.1960 h1         1 FGR       0.035200
     32 HN24         5.7390     0.1140     4.4120 hn         1 FGR       0.205500
     33 H19          7.7930    -0.8780     5.1290 h5         1 FGR      -0.030800
@<TRIPOS>BOND
     1     1     2 1   
     2     1     3 1   
     3     1     7 1   
     4     1    21 1   
     5     2    22 1   
     6     3     4 1   
     7     3     5 1   
     8     3    23 1   
     9     4    24 1   
    10     5     6 1   
    11     5    10 1   
    12     5    25 1   
    13     6     7 1   
    14     7     8 1   
    15     7    26 1   
    16     8     9 1   
    17     8    27 1   
    18     8    28 1   
    19     9    15 1   
    20    10    11 1   
    21    10    29 1   
    22    11    12 2   
    23    11    13 1   
    24    13    14 1   
    25    13    30 1   
    26    13    31 1   
    27    14    19 1   
    28    14    32 1   
    29    15    16 1   
    30    15    17 1   
    31    15    18 1   
    32    19    20 2   
    33    19    33 1   
@<TRIPOS>SUBSTRUCTURE
     1 FGR         1 TEMP              0 ****  ****    0 ROOT
