@<TRIPOS>MOLECULE
molecule
   35    34     1     0     0
SMALL
bcc


@<TRIPOS>ATOM
      1 O18          0.0000     0.0000     0.0000 o          1 FGS      -0.908500
      2 P15          1.6100     0.0000     0.0000 p5         1 FGS       1.176900
      3 O16          2.1460     0.0000     1.5190 o          1 FGS      -0.908500
      4 O17          2.1030    -1.2090    -0.6980 o          1 FGS      -0.908500
      5 O12          2.1470     1.3150    -0.7590 os         1 FGS      -0.579200
      6 C10          1.9290     1.5530    -2.1510 c3         1 FGS       0.198400
      7 C7           2.5680     2.8850    -2.5460 c3         1 FGS       0.115100
      8 O4           1.9000     3.9530    -1.8710 oh         1 FGS      -0.593800
      9 C1           2.4450     3.0820    -4.0590 c3         1 FGS       0.142100
     10 O6           1.0720     2.9720    -4.4430 oh         1 FGS      -0.596800
     11 C2           2.9700     4.4680    -4.4370 c3         1 FGS       0.143100
     12 O8           2.2840     5.4630    -3.6750 oh         1 FGS      -0.547800
     13 C3           2.7320     4.7140    -5.9280 c3         1 FGS       0.110700
     14 C19          3.2590     6.0990    -6.3080 c3         1 FGS       0.117400
     15 O20          2.6570     7.0840    -5.4650 oh         1 FGS      -0.585800
     16 N19          1.2970     4.6410    -6.2130 ns         1 FGS      -0.530900
     17 C21          0.8700     4.3230    -7.4510 c          1 FGS       0.652100
     18 O22          1.6750     4.0960    -8.3300 o          1 FGS      -0.667100
     19 C23         -0.6060     4.2490    -7.7430 c3         1 FGS      -0.167100
     20 H101         0.8640     1.5900    -2.3490 h1         1 FGS       0.019700
     21 H102         2.3760     0.7530    -2.7290 h1         1 FGS       0.019700
     22 H7           3.6150     2.8810    -2.2660 h1         1 FGS       0.018700
     23 H4           2.2860     4.0770    -1.0200 ho         1 FGS       0.403000
     24 H1           3.0250     2.3230    -4.5700 h1         1 FGS       0.031700
     25 H6           0.8840     2.0800    -4.6850 ho         1 FGS       0.405000
     26 H2           4.0320     4.5210    -4.2270 h1         1 FGS       0.030700
     27 H8           2.9070     5.9550    -3.1660 ho         1 FGS       0.391000
     28 H3           3.2530     3.9590    -6.5060 h1         1 FGS       0.077700
     29 H191         4.3340     6.1240    -6.1810 h1         1 FGS       0.018700
     30 H192         3.0120     6.3090    -7.3410 h1         1 FGS       0.018700
     31 H19          0.6340     4.8690    -5.4990 hn         1 FGS       0.359500
     32 H20          2.8840     7.9450    -5.7750 ho         1 FGS       0.378000
     33 H231        -1.0130     3.3400    -7.3170 hc         1 FGS       0.054700
     34 H232        -1.1040     5.1060    -7.3080 hc         1 FGS       0.054700
     35 H233        -0.7620     4.2460    -8.8150 hc         1 FGS       0.054700
@<TRIPOS>BOND
     1     1     2 1
     2     2     3 1
     3     2     4 1
     4     2     5 1
     5     5     6 1
     6     6     7 1
     7     7     8 1
     8     7     9 1
     9     9    10 1
    10     9    11 1
    11    11    12 1
    12    11    13 1
    13    13    14 1
    14    13    16 1
    15    14    15 1
    16    16    17 1
    17    17    18 2
    18    17    19 1
    19     6    20 1
    20     6    21 1
    21     7    22 1
    22     8    23 1
    23     9    24 1
    24    10    25 1
    25    11    26 1
    26    12    27 1
    27    13    28 1
    28    14    29 1
    29    14    30 1
    30    16    31 1
    31    15    32 1
    32    19    33 1
    33    19    34 1
    34    19    35 1
@<TRIPOS>SUBSTRUCTURE
     1 FGS         1 TEMP              0 ****  ****    0 ROOT
