@<TRIPOS>MOLECULE
molecule
   33    33     1     0     0
SMALL
bcc


@<TRIPOS>ATOM
      1 C1           0.0000     0.0000     0.0000 c3         1 FGV       0.206433
      2 C2           1.5300     0.0000     0.0000 c3         1 FGV       0.122433
      3 C3           2.0400     0.0000     1.4430 c3         1 FGV       0.206433
      4 C4           1.5300    -1.2500     2.1630 c3         1 FGV       0.122433
      5 C5          -0.0000    -1.2500     2.1630 c3         1 FGV       0.206433
      6 O1          -0.4760    -0.0000    -1.3470 os         1 FGV      -0.605200
      7 C6          -0.5100    -1.2490     0.7210 c3         1 FGV       0.122433
      8 O11         -1.6410     0.9130    -3.5200 o          1 FGV      -0.946944
      9 O12         -2.8240     1.1730    -1.1860 o          1 FGV      -0.946944
     10 O13         -0.7380     2.4770    -1.7570 o          1 FGV      -0.946944
     11 O2           2.0070    -1.1660    -0.6730 oh         1 FGV      -0.565133
     12 O3           3.4690    -0.0000     1.4430 os         1 FGV      -0.605200
     13 O4           2.0060    -1.2500     3.5120 oh         1 FGV      -0.565133
     14 O5          -0.4760    -2.4170     2.8370 os         1 FGV      -0.605200
     15 O51         -2.6050    -1.5350     3.8670 o          1 FGV      -0.946944
     16 O52         -1.8570    -3.8440     4.5600 o          1 FGV      -0.946944
     17 O53         -0.5770    -1.6920     5.3630 o          1 FGV      -0.946944
     18 O6          -1.9400    -1.2500     0.7210 oh         1 FGV      -0.565133
     19 P1          -1.4060     1.1690    -1.9490 p5         1 FGV       1.240233
     20 P5          -1.4050    -2.3540     4.1510 p5         1 FGV       1.240233
     21 P3           4.3450     1.1700     2.1190 p5         1 FGV       1.240233
     22 O31          5.9060     0.7810     2.0460 o          1 FGV      -0.946944
     23 O32          4.0990     2.5500     1.3270 o          1 FGV      -0.946944
     24 O33          3.9420     1.3340     3.5330 o          1 FGV      -0.946944
     25 H1          -0.3590     0.8830     0.5140 h1         1 FGV       0.067367
     26 H2           1.8890     0.8870    -0.5070 h1         1 FGV       0.023700
     27 H3           1.6740     0.8830     1.9530 h1         1 FGV       0.067367
     28 H4           1.8890    -2.1330     1.6480 h1         1 FGV       0.023700
     29 H5          -0.3590    -0.3630     2.6710 h1         1 FGV       0.067367
     30 H6          -0.1450    -2.1320     0.2110 h1         1 FGV       0.023700
     31 H12          2.5290    -0.9090    -1.4140 ho         1 FGV       0.351000
     32 H14          2.5280    -2.0210     3.6600 ho         1 FGV       0.351000
     33 H16         -2.2540    -2.0240     0.2840 ho         1 FGV       0.351000
@<TRIPOS>BOND
     1    10    19 1
     2     9    19 1
     3    19     6 1
     4    19     8 1
     5    18     7 1
     6    15    20 1
     7     6     1 1
     8     7     1 1
     9     7     5 1
    10    16    20 1
    11    20    14 1
    12    20    17 1
    13     1     2 1
    14    14     5 1
    15     5     4 1
    16     2    11 1
    17     2     3 1
    18     4     3 1
    19     4    13 1
    20     3    12 1
    21    24    21 1
    22    12    21 1
    23    22    21 1
    24    21    23 1
    25     1    25 1
    26     2    26 1
    27     3    27 1
    28     4    28 1
    29     5    29 1
    30     7    30 1
    31    11    31 1
    32    13    32 1
    33    18    33 1
@<TRIPOS>SUBSTRUCTURE
     1 FGV         1 TEMP              0 ****  ****    0 ROOT
