@<TRIPOS>MOLECULE
molecule
   73    74     1     0     0
SMALL
bcc


@<TRIPOS>ATOM
      1 C15          0.0000     0.0000     0.0000 c          1 FGY       0.652100
      2 C17         -2.1390     0.0010    -1.1660 c3         1 FGY       0.161300
      3 C20         -3.3340    -1.1970    -4.5420 ca         1 FGY      -0.130000
      4 C21         -3.5640     0.0000    -5.1940 ca         1 FGY      -0.118000
      5 C22         -3.3280     1.1980    -4.5450 ca         1 FGY      -0.130000
      6 C28          2.7480     2.7430     3.4600 c          1 FGY       0.657100
      7 C05          9.6700     2.7230     4.4370 ca         1 FGY      -0.119600
      8 C06          9.2810     1.8050     5.4130 ca         1 FGY      -0.100500
      9 C07          8.0550     1.1810     5.3220 ca         1 FGY      -0.092500
     10 C08          7.2030     1.4680     4.2540 ca         1 FGY      -0.121600
     11 C09          5.8860     0.7980     4.1580 c          1 FGY       0.671700
     12 C11          3.7200     0.4930     3.0830 c3         1 FGY       0.070700
     13 C12          3.2180     0.4930     1.6630 c          1 FGY       0.660100
     14 C14          1.5070     0.0000     0.0000 c3         1 FGY       0.044700
     15 C18         -2.6420     0.0000    -2.5880 ca         1 FGY      -0.122300
     16 C19         -2.8730    -1.1960    -3.2380 ca         1 FGY      -0.112000
     17 C23         -2.8610     1.1980    -3.2430 ca         1 FGY      -0.112000
     18 C25          2.0160    -1.2510    -0.7210 c3         1 FGY      -0.109100
     19 C27          2.7770     1.3220     3.9580 c3         1 FGY      -0.176400
     20 C30          1.8670     5.0140     3.5200 c3         1 FGY       0.123000
     21 C31          0.8200     5.8090     4.3040 c3         1 FGY      -0.091000
     22 C32          1.1780     5.7980     5.7910 c3         1 FGY      -0.082433
     23 C33          0.7900     7.2520     3.7960 c3         1 FGY      -0.082433
     24 C34         -0.5570     5.1700     4.1060 c3         1 FGY      -0.082433
     25 C37          7.5930     2.3860     3.2780 ca         1 FGY      -0.092500
     26 C38          8.8160     3.0140     3.3710 ca         1 FGY      -0.100500
     27 N03         11.3630     4.2790     3.5910 ns         1 FGY      -0.470400
     28 N10          5.0640     1.0760     3.1270 ns         1 FGY      -0.553900
     29 N13          1.9960     0.0000     1.3810 ns         1 FGY      -0.571900
     30 N16         -0.6740    -0.0000    -1.1670 ns         1 FGY      -0.578900
     31 N29          1.8950     3.6330     4.0050 ns         1 FGY      -0.582900
     32 O01         11.7290     3.1430     5.4640 o          1 FGY      -0.571100
     33 O04         12.6230     4.9200     3.6840 oh         1 FGY      -0.359100
     34 O24         -0.6060    -0.0040     1.0500 o          1 FGY      -0.618100
     35 O26          3.9130     0.9360     0.7740 o          1 FGY      -0.595100
     36 O35          3.4910     3.0870     2.5650 o          1 FGY      -0.611100
     37 O36          5.5470    -0.0000     5.0080 o          1 FGY      -0.623100
     38 H1          -2.4990     0.8870    -0.6570 h1         1 FGY       0.060200
     39 H2          -2.5010    -0.8820    -0.6550 h1         1 FGY       0.060200
     40 H3          -3.5180    -2.1350    -5.0510 ha         1 FGY       0.134000
     41 H4          -3.9280    -0.0000    -6.2140 ha         1 FGY       0.133000
     42 H5          -3.5040     2.1360    -5.0570 ha         1 FGY       0.134000
     43 H6           9.9420     1.5830     6.2420 ha         1 FGY       0.145000
     44 H7           7.7520     0.4690     6.0800 ha         1 FGY       0.155000
     45 H8           3.7560    -0.5240     3.4540 h1         1 FGY       0.093700
     46 H9           1.8680     0.8840    -0.5110 h1         1 FGY       0.098700
     47 H10         -2.6920    -2.1340    -2.7270 ha         1 FGY       0.135000
     48 H11         -2.6750     2.1360    -2.7350 ha         1 FGY       0.135000
     49 H12          2.5260    -0.9600    -1.6310 hc         1 FGY       0.049367
     50 H13          2.7040    -1.7850    -0.0760 hc         1 FGY       0.049367
     51 H14          1.1780    -1.8930    -0.9660 hc         1 FGY       0.049367
     52 H15          3.1290     1.3060     4.9830 hc         1 FGY       0.078700
     53 H16          1.7800     0.9020     3.9130 hc         1 FGY       0.078700
     54 H17          2.8420     5.4650     3.6590 h1         1 FGY       0.054200
     55 H18          1.6120     5.0210     2.4670 h1         1 FGY       0.054200
     56 H19          0.9690     4.8190     6.2060 hc         1 FGY       0.037589
     57 H20          2.2320     6.0220     5.9100 hc         1 FGY       0.037589
     58 H21          0.5890     6.5440     6.3100 hc         1 FGY       0.037589
     59 H22          0.5180     7.2600     2.7480 hc         1 FGY       0.037589
     60 H23          1.7700     7.6980     3.9190 hc         1 FGY       0.037589
     61 H24          0.0620     7.8190     4.3630 hc         1 FGY       0.037589
     62 H25         -0.7030     4.9450     3.0570 hc         1 FGY       0.037589
     63 H26         -1.3250     5.8570     4.4380 hc         1 FGY       0.037589
     64 H27         -0.6170     4.2550     4.6830 hc         1 FGY       0.037589
     65 H28          6.9310     2.6100     2.4500 ha         1 FGY       0.155000
     66 H29          9.1190     3.7260     2.6140 ha         1 FGY       0.145000
     67 H30         10.7580     4.4740     2.8180 hn         1 FGY       0.322500
     68 H31          5.3900     1.6390     2.3650 hn         1 FGY       0.355500
     69 H32          1.4340    -0.3940     2.1100 hn         1 FGY       0.333500
     70 H33         -0.1740     0.0180    -2.0340 hn         1 FGY       0.322500
     71 H34          1.2840     3.3500     4.7460 hn         1 FGY       0.317500
     72 H35         12.8110     5.3620     2.8730 ho         1 FGY       0.398000
     73 C02         10.9870     3.3930     4.5340 c          1 FGY       0.683700
@<TRIPOS>BOND
     1    18    14 1
     2    34     1 2
     3     1    14 1
     4     1    30 1
     5    14    29 1
     6    23    21 1
     7     2    30 1
     8     2    15 1
     9    29    13 1
    10    15    16 ar
    11    15    17 ar
    12    37    11 2
    13    21    22 1
    14    21    20 1
    15    21    24 1
    16    16     3 ar
    17    31    20 1
    18    31     6 1
    19    13    12 1
    20    13    35 2
    21    12    19 1
    22    12    28 1
    23    17     5 ar
    24    19     6 1
    25    11    28 1
    26    11    10 1
    27     3     4 ar
    28     6    36 2
    29     5     4 ar
    30    25    10 ar
    31    25    26 ar
    32    10     9 ar
    33    26     7 ar
    34     9     8 ar
    35     7     8 ar
    36     7    73 1
    37    27    73 1
    38    27    33 1
    39    73    32 2
    40     2    38 1
    41     2    39 1
    42     3    40 1
    43     4    41 1
    44     5    42 1
    45     8    43 1
    46     9    44 1
    47    12    45 1
    48    14    46 1
    49    16    47 1
    50    17    48 1
    51    18    49 1
    52    18    50 1
    53    18    51 1
    54    19    52 1
    55    19    53 1
    56    20    54 1
    57    20    55 1
    58    22    56 1
    59    22    57 1
    60    22    58 1
    61    23    59 1
    62    23    60 1
    63    23    61 1
    64    24    62 1
    65    24    63 1
    66    24    64 1
    67    25    65 1
    68    26    66 1
    69    27    67 1
    70    28    68 1
    71    29    69 1
    72    30    70 1
    73    31    71 1
    74    33    72 1
@<TRIPOS>SUBSTRUCTURE
     1 FGY         1 TEMP              0 ****  ****    0 ROOT
