@<TRIPOS>MOLECULE
molecule
   15    15     1     0     0
SMALL
bcc


@<TRIPOS>ATOM
      1 O01          0.0000     0.0000     0.0000 o          1 FGZ      -0.825300
      2 C02          1.2150     0.0000     0.0000 c          1 FGZ       0.882200
      3 O03          1.8890     0.0000     1.1670 o          1 FGZ      -0.825300
      4 C04          1.9520    -0.0070    -1.2770 ca         1 FGZ      -0.089600
      5 C05          1.2550    -0.0130    -2.4890 ca         1 FGZ      -0.083500
      6 C06          1.9480    -0.0190    -3.6800 ca         1 FGZ      -0.010100
      7 Cl1          1.0850    -0.0260    -5.1850 cl         1 FGZ      -0.135900
      8 C08          3.3390    -0.0170    -3.6770 ca         1 FGZ       0.080100
      9 O09          4.0180    -0.0230    -4.8530 oh         1 FGZ      -0.515100
     10 C10          4.0360    -0.0110    -2.4740 ca         1 FGZ      -0.010100
     11 Cl2          5.7720    -0.0090    -2.4780 cl         1 FGZ      -0.135900
     12 C12          3.3500    -0.0000    -1.2790 ca         1 FGZ      -0.083500
     13 H2           0.1730     0.0400    -2.4920 ha         1 FGZ       0.171500
     14 H3           4.1770    -0.9130    -5.1200 ho         1 FGZ       0.409000
     15 H4           3.8930     0.0570    -0.3440 ha         1 FGZ       0.171500
@<TRIPOS>BOND
     1     1     2 1
     2     3     2 1
     3     2     4 1
     4     4     5 ar
     5     4    12 ar
     6     5     6 ar
     7    12    10 ar
     8     6     7 1
     9     6     8 ar
    10    10     8 ar
    11    10    11 1
    12     8     9 1
    13     5    13 1
    14     9    14 1
    15    12    15 1
@<TRIPOS>SUBSTRUCTURE
     1 FGZ         1 TEMP              0 ****  ****    0 ROOT
