@<TRIPOS>MOLECULE
molecule
   23    23     1     0     0
SMALL
bcc


@<TRIPOS>ATOM
      1 OAF          0.0000     0.0000     0.0000 oh         1 FH2      -0.589800
      2 CAC          1.4290     0.0000     0.0000 c3         1 FH2       0.188300
      3 CAD          1.9380     0.0000     1.4430 c3         1 FH2       0.105100
      4 OAG          1.2800     1.0310     2.1830 oh         1 FH2      -0.578800
      5 CAE          3.4490     0.2610     1.4250 c3         1 FH2       0.155600
      6 FAH          4.0710    -0.6380     0.5520 f          1 FH2      -0.228300
      7 CAA          3.6860     1.6950     0.9430 c3         1 FH2       0.162300
      8 CAB          2.9110     1.9520    -0.3160 c2         1 FH2      -0.139200
      9 CAI          1.9260     1.2170    -0.7240 c2         1 FH2      -0.121400
     10 CAJ          1.2360     1.6080    -2.0050 c3         1 FH2       0.184600
     11 OAK          1.8510     2.7840    -2.5370 oh         1 FH2      -0.615800
     12 O1           5.0800     1.8830     0.6880 oh         1 FH2      -0.589800
     13 H1          -0.3140    -0.8700    -0.1830 ho         1 FH2       0.397000
     14 H2           1.7910    -0.8870    -0.5050 h1         1 FH2       0.056700
     15 H3           1.7420    -0.9640     1.8970 h1         1 FH2       0.044700
     16 H4           0.9250     0.6690     2.9780 ho         1 FH2       0.405000
     17 H5           3.8490     0.1430     2.4250 h1         1 FH2       0.059700
     18 H6           3.3610     2.3870     1.7100 h1         1 FH2       0.063700
     19 H7           3.1910     2.8060    -0.9200 ha         1 FH2       0.163000
     20 H8           0.1900     1.8060    -1.8060 h1         1 FH2       0.035200
     21 H9           1.3210     0.8010    -2.7220 h1         1 FH2       0.035200
     22 H10          1.4210     3.0280    -3.3400 ho         1 FH2       0.405000
     23 H11          5.3730     2.6730     1.1110 ho         1 FH2       0.402000
@<TRIPOS>BOND
     1     4     3 1
     2     1     2 1
     3     2     3 1
     4     2     9 1
     5     3     5 1
     6     9    10 1
     7     9     8 2
     8    10    11 1
     9     5     6 1
    10     5     7 1
    11     8     7 1
    12     7    12 1
    13     1    13 1
    14     2    14 1
    15     3    15 1
    16     4    16 1
    17     5    17 1
    18     7    18 1
    19     8    19 1
    20    10    20 1
    21    10    21 1
    22    11    22 1
    23    12    23 1
@<TRIPOS>SUBSTRUCTURE
     1 FH2         1 TEMP              0 ****  ****    0 ROOT
