@<TRIPOS>MOLECULE
molecule
   49    52     1     0     0
SMALL
bcc


@<TRIPOS>ATOM
      1 Cl           0.0000     0.0000     0.0000 cl         1 FH3      -0.089400
      2 C02          1.7360     0.0000     0.0000 ca         1 FH3      -0.164900
      3 C03          2.4340     0.0000     1.1940 ca         1 FH3       0.456200
      4 N04          3.7520     0.0010     1.2200 nb         1 FH3      -0.693000
      5 C05          4.4720     0.0030     0.1080 ca         1 FH3       0.416800
      6 N06          5.8280     0.0040    -0.1460 na         1 FH3      -0.367000
      7 C07          5.9890     0.0050    -1.5060 cc         1 FH3       0.536400
      8 C08          7.2890     0.0070    -2.2110 cc         1 FH3      -0.339200
      9 C09          8.5350     0.0070    -1.6230 cd         1 FH3      -0.097300
     10 N10          9.4470     0.0090    -2.6140 na         1 FH3       0.080400
     11 C11         10.9020     0.0090    -2.4410 c3         1 FH3       0.061600
     12 N12          8.7680     0.0100    -3.8380 nd         1 FH3      -0.516800
     13 C13          7.4840     0.0030    -3.6080 cc         1 FH3       0.397600
     14 C14          6.3970    -0.0060    -4.6530 c3         1 FH3      -0.108400
     15 N15          4.8160     0.0040    -2.0900 nd         1 FH3      -0.580100
     16 C16          3.8430     0.0030    -1.1460 ca         1 FH3       0.014100
     17 C17          2.4380    -0.0040    -1.2020 ca         1 FH3       0.177600
     18 N18          1.7680    -0.0090    -2.4220 nh         1 FH3      -0.578000
     19 C19          0.9040     1.1900    -2.5610 c3         1 FH3       0.147800
     20 C20         -0.1120     0.7710    -3.6530 c3         1 FH3      -0.093700
     21 C21         -1.4040     1.5800    -3.5300 c3         1 FH3       0.118000
     22 N22         -2.2970     1.2490    -4.6430 ns         1 FH3      -0.590900
     23 C23         -3.5020     1.8450    -4.7420 c          1 FH3       0.655100
     24 C24         -4.4200     1.5040    -5.8880 c3         1 FH3      -0.171100
     25 O25         -3.8480     2.6540    -3.9080 o          1 FH3      -0.609100
     26 C26         -0.3670    -0.7200    -3.3350 c3         1 FH3      -0.088400
     27 C27          0.8610    -1.1730    -2.5250 c3         1 FH3       0.140800
     28 H03          1.8860    -0.0010     2.1290 h4         1 FH3       0.038100
     29 H06          6.5540    -0.1190     0.5320 hn         1 FH3       0.309700
     30 H09          8.7420     0.1350    -0.5680 h4         1 FH3       0.168000
     31 H111        11.2090     0.9340    -1.9680 h1         1 FH3       0.059033
     32 H112        11.3810    -0.0790    -3.4080 h1         1 FH3       0.059033
     33 H113        11.1910    -0.8290    -1.8170 h1         1 FH3       0.059033
     34 H141         5.7830    -0.8900    -4.5290 hc         1 FH3       0.061033
     35 H142         5.7830     0.8790    -4.5420 hc         1 FH3       0.061033
     36 H143         6.8450    -0.0130    -5.6400 hc         1 FH3       0.061033
     37 H191         1.4860     2.0430    -2.8900 h1         1 FH3       0.061200
     38 H192         0.3940     1.4030    -1.6290 h1         1 FH3       0.061200
     39 H271         0.5530    -1.4890    -1.5350 h1         1 FH3       0.055700
     40 H272         1.3610    -1.9860    -3.0380 h1         1 FH3       0.055700
     41 H20          0.3230     0.8810    -4.6390 hc         1 FH3       0.069700
     42 H211        -1.8920     1.3410    -2.5930 h1         1 FH3       0.055700
     43 H212        -1.1720     2.6380    -3.5560 h1         1 FH3       0.055700
     44 H261        -1.2670    -0.8270    -2.7420 hc         1 FH3       0.050700
     45 H262        -0.4420    -1.2910    -4.2520 hc         1 FH3       0.050700
     46 H22         -1.9990     0.6030    -5.3480 hn         1 FH3       0.313500
     47 H241        -4.7200     0.4660    -5.8130 hc         1 FH3       0.060033
     48 H242        -5.2970     2.1380    -5.8490 hc         1 FH3       0.060033
     49 H243        -3.9010     1.6630    -6.8250 hc         1 FH3       0.060033
@<TRIPOS>BOND
     1     1     2 1
     2     2     3 ar
     3     2    17 ar
     4     3     4 ar
     5     4     5 ar
     6     5     6 1
     7     5    16 ar
     8     6     7 1
     9     7     8 1
    10     7    15 2
    11     8     9 2
    12     8    13 1
    13     9    10 1
    14    10    11 1
    15    10    12 1
    16    12    13 2
    17    13    14 1
    18    15    16 1
    19    16    17 ar
    20    17    18 1
    21    18    19 1
    22    18    27 1
    23    19    20 1
    24    20    21 1
    25    20    26 1
    26    21    22 1
    27    22    23 1
    28    23    24 1
    29    23    25 2
    30    26    27 1
    31     3    28 1
    32     6    29 1
    33     9    30 1
    34    11    31 1
    35    11    32 1
    36    11    33 1
    37    14    34 1
    38    14    35 1
    39    14    36 1
    40    19    37 1
    41    19    38 1
    42    27    39 1
    43    27    40 1
    44    20    41 1
    45    21    42 1
    46    21    43 1
    47    26    44 1
    48    26    45 1
    49    22    46 1
    50    24    47 1
    51    24    48 1
    52    24    49 1
@<TRIPOS>SUBSTRUCTURE
     1 FH3         1 TEMP              0 ****  ****    0 ROOT
