@<TRIPOS>MOLECULE
molecule
   46    49     1     0     0
SMALL
bcc


@<TRIPOS>ATOM
      1 Cl           0.0000     0.0000     0.0000 cl         1 FH5      -0.087400
      2 C02          1.7350     0.0000     0.0000 ca         1 FH5      -0.165900
      3 C03          2.4340     0.0000     1.1950 ca         1 FH5       0.457200
      4 N04          3.7510     0.0000     1.2210 nb         1 FH5      -0.692000
      5 C05          4.4720    -0.0000     0.1080 ca         1 FH5       0.415800
      6 N06          5.8290     0.0010    -0.1450 na         1 FH5      -0.367000
      7 C07          5.9890     0.0010    -1.5060 cc         1 FH5       0.536400
      8 C08          7.2890     0.0020    -2.2090 cc         1 FH5      -0.340200
      9 C09          8.5360     0.0010    -1.6230 cd         1 FH5      -0.096300
     10 N10          9.4470     0.0020    -2.6130 na         1 FH5       0.082400
     11 C11         10.9020     0.0010    -2.4380 c3         1 FH5       0.061600
     12 N12          8.7690     0.0020    -3.8370 nd         1 FH5      -0.516800
     13 C13          7.4840    -0.0050    -3.6070 cc         1 FH5       0.396600
     14 C14          6.3980    -0.0130    -4.6520 c3         1 FH5      -0.108400
     15 N15          4.8160    -0.0000    -2.0890 nd         1 FH5      -0.581100
     16 C16          3.8430    -0.0010    -1.1460 ca         1 FH5       0.014100
     17 C17          2.4370    -0.0070    -1.2020 ca         1 FH5       0.176600
     18 N18          1.7680    -0.0130    -2.4220 nh         1 FH5      -0.580000
     19 C19          0.9080     1.1820    -2.5610 c3         1 FH5       0.131800
     20 C20         -0.3380     0.7520    -3.3580 c3         1 FH5       0.108700
     21 N21         -0.4130     1.4900    -4.6210 ns         1 FH5      -0.581900
     22 C22         -1.6040     1.6700    -5.2260 c          1 FH5       0.656100
     23 C23         -1.6820     2.4290    -6.5260 c3         1 FH5      -0.172100
     24 O24         -2.6130     1.2210    -4.7250 o          1 FH5      -0.612100
     25 C25         -0.1420    -0.7570    -3.6300 c3         1 FH5      -0.094400
     26 C26          0.8570    -1.1810    -2.5230 c3         1 FH5       0.130800
     27 H03          1.8850    -0.0000     2.1290 h4         1 FH5       0.038100
     28 H06          6.5540    -0.1250     0.5330 hn         1 FH5       0.309700
     29 H09          8.7420     0.1250    -0.5660 h4         1 FH5       0.168000
     30 H111        11.3810    -0.0900    -3.4060 h1         1 FH5       0.059033
     31 H112        11.1900    -0.8350    -1.8130 h1         1 FH5       0.059033
     32 H113        11.2100     0.9270    -1.9680 h1         1 FH5       0.059033
     33 H141         6.8470    -0.0190    -5.6380 hc         1 FH5       0.061033
     34 H142         5.7830     0.8720    -4.5410 hc         1 FH5       0.061033
     35 H143         5.7850    -0.8970    -4.5280 hc         1 FH5       0.061033
     36 H191         1.4400     1.9570    -3.1000 h1         1 FH5       0.058200
     37 H192         0.6140     1.5400    -1.5820 h1         1 FH5       0.058200
     38 H261         0.3400    -1.3440    -1.5850 h1         1 FH5       0.060200
     39 H262         1.4050    -2.0660    -2.8240 h1         1 FH5       0.060200
     40 H20         -1.2330     0.9130    -2.7680 h1         1 FH5       0.086700
     41 H21          0.4140     1.8960    -5.0140 hn         1 FH5       0.318500
     42 H251         0.2860    -0.9150    -4.6120 hc         1 FH5       0.064200
     43 H252        -1.0800    -1.2890    -3.5220 hc         1 FH5       0.064200
     44 H231        -0.9590     2.0250    -7.2240 hc         1 FH5       0.060367
     45 H232        -1.4660     3.4760    -6.3470 hc         1 FH5       0.060367
     46 H233        -2.6780     2.3330    -6.9410 hc         1 FH5       0.060367
@<TRIPOS>BOND
     1     1     2 1
     2     2     3 ar
     3     2    17 ar
     4     3     4 ar
     5     4     5 ar
     6     5     6 1
     7     5    16 ar
     8     6     7 1
     9     7     8 1
    10     7    15 2
    11     8     9 2
    12     8    13 1
    13     9    10 1
    14    10    11 1
    15    10    12 1
    16    12    13 2
    17    13    14 1
    18    15    16 1
    19    16    17 ar
    20    17    18 1
    21    18    19 1
    22    18    26 1
    23    19    20 1
    24    20    21 1
    25    20    25 1
    26    21    22 1
    27    22    23 1
    28    22    24 2
    29    25    26 1
    30     3    27 1
    31     6    28 1
    32     9    29 1
    33    11    30 1
    34    11    31 1
    35    11    32 1
    36    14    33 1
    37    14    34 1
    38    14    35 1
    39    19    36 1
    40    19    37 1
    41    26    38 1
    42    26    39 1
    43    20    40 1
    44    21    41 1
    45    25    42 1
    46    25    43 1
    47    23    44 1
    48    23    45 1
    49    23    46 1
@<TRIPOS>SUBSTRUCTURE
     1 FH5         1 TEMP              0 ****  ****    0 ROOT
