@<TRIPOS>MOLECULE
FH9
   69    69     1     0     0
SMALL
bcc


@<TRIPOS>ATOM
      1 C23          0.0000     0.0000     0.0000 c3         1 FH9      -0.055400
      2 C24          1.5300     0.0000     0.0000 c3         1 FH9      -0.017400
      3 C25          2.0410     0.0000     1.4420 c3         1 FH9      -0.027400
      4 C28          1.5300    -1.2490     2.1640 c3         1 FH9      -0.017400
      5 C29          0.0010    -1.2480     2.1650 c3         1 FH9      -0.055400
      6 C22         -0.5100    -1.2480     0.7220 c3         1 FH9      -0.052700
      7 C21         -2.0400    -1.2480     0.7230 c3         1 FH9      -0.042400
      8 C14         -2.5510    -2.6190     1.1710 c3         1 FH9      -0.030300
      9 C15         -2.1830    -2.8440     2.6150 c          1 FH9       0.582100
     10 O16         -1.4450    -3.7580     2.9180 o          1 FH9      -0.661100
     11 N17         -2.6740    -2.0300     3.5700 ns         1 FH9      -0.196900
     12 C18         -2.3160    -2.2490     4.9740 c3         1 FH9       0.039000
     13 C19         -3.0020    -1.1950     5.8460 c3         1 FH9      -0.040400
     14 C20         -2.6290    -1.4230     7.3110 c3         1 FH9      -0.048700
     15 C26         -1.1280    -1.1890     7.4980 c3         1 FH9       0.002400
     16 C27         -3.4110    -0.4490     8.1950 c3         1 FH9       0.002400
     17 N13         -1.9390    -3.6620     0.3430 ns         1 FH9      -0.219900
     18 C11         -2.5360    -4.0490    -0.8020 c          1 FH9       0.585100
     19 O12         -3.5300    -3.4700    -1.1940 o          1 FH9      -0.705100
     20 N10         -2.0300    -5.0760    -1.5110 ns         1 FH9      -0.175900
     21 C6          -2.6780    -5.4970    -2.7560 c3         1 FH9      -0.085300
     22 C7          -3.7980    -6.4550    -2.4400 c          1 FH9       0.969600
     23 O8          -4.5370    -6.9740    -3.4340 o          1 FH9      -0.873800
     24 O9          -4.0310    -6.7550    -1.2940 o          1 FH9      -0.873800
     25 C5          -1.6530    -6.1900    -3.6560 c3         1 FH9      -0.019400
     26 C4          -0.5820    -5.1820    -4.0780 c3         1 FH9      -0.031400
     27 C3           0.4430    -5.8750    -4.9780 c3         1 FH9      -0.036400
     28 C2           1.5150    -4.8680    -5.4000 c3         1 FH9      -0.059200
     29 N1           2.4990    -5.5330    -6.2640 nz         1 FH9       0.081400
     30 H231        -0.3600    -0.0030    -1.0220 hc         1 FH9       0.028200
     31 H232        -0.3600     0.8840     0.5120 hc         1 FH9       0.028200
     32 H241         1.8900    -0.8860    -0.5090 hc         1 FH9       0.007700
     33 H242         1.8900     0.8860    -0.5090 hc         1 FH9       0.007700
     34 H22         -0.1450    -2.1320     0.2130 hc         1 FH9       0.035700
     35 H251         3.1240    -0.0040     1.4390 hc         1 FH9       0.010200
     36 H252         1.6790     0.8840     1.9520 hc         1 FH9       0.010200
     37 H281         1.8890    -2.1330     1.6510 hc         1 FH9       0.007700
     38 H282         1.8900    -1.2460     3.1860 hc         1 FH9       0.007700
     39 H291        -0.3590    -2.1340     2.6740 hc         1 FH9       0.028200
     40 H292        -0.3580    -0.3610     2.6730 hc         1 FH9       0.028200
     41 H211        -2.4020    -1.0370    -0.2760 hc         1 FH9       0.028700
     42 H212        -2.4010    -0.4880     1.4050 hc         1 FH9       0.028700
     43 H14         -3.6280    -2.6560     1.0630 h1         1 FH9       0.076700
     44 H13         -1.1100    -4.1250     0.6560 hn         1 FH9       0.183500
     45 H17         -3.3240    -1.3090     3.3270 hn         1 FH9       0.180500
     46 H181        -1.2420    -2.1710     5.0900 h1         1 FH9       0.030700
     47 H182        -2.6410    -3.2370     5.2790 h1         1 FH9       0.030700
     48 H191        -4.0760    -1.2740     5.7310 hc         1 FH9       0.019700
     49 H192        -2.6780    -0.2070     5.5400 hc         1 FH9       0.019700
     50 H20         -2.8730    -2.4410     7.5920 hc         1 FH9       0.030700
     51 H261        -0.5870    -2.0940     7.2490 hc         1 FH9       0.004200
     52 H262        -0.8040    -0.3850     6.8490 hc         1 FH9       0.004200
     53 H263        -0.9290    -0.9230     8.5290 hc         1 FH9       0.004200
     54 H271        -4.4730    -0.5830     8.0270 hc         1 FH9       0.004200
     55 H272        -3.1820    -0.6430     9.2360 hc         1 FH9       0.004200
     56 H273        -3.1310     0.5680     7.9460 hc         1 FH9       0.004200
     57 H10         -1.2340    -5.5760    -1.1680 hn         1 FH9       0.146500
     58 H6          -3.0780    -4.6290    -3.2660 h1         1 FH9       0.057700
     59 H51C        -1.1890    -7.0050    -3.1140 hc         1 FH9       0.033700
     60 H52C        -2.1500    -6.5780    -4.5370 hc         1 FH9       0.033700
     61 H41C        -0.0840    -4.7940    -3.1970 hc         1 FH9       0.023200
     62 H42C        -1.0450    -4.3670    -4.6190 hc         1 FH9       0.023200
     63 H31C         0.9070    -6.6910    -4.4370 hc         1 FH9       0.032700
     64 H32C        -0.0540    -6.2630    -5.8590 hc         1 FH9       0.032700
     65 H21C         1.0510    -4.0520    -5.9420 hx         1 FH9       0.083700
     66 H22C         2.0120    -4.4790    -4.5190 hx         1 FH9       0.083700
     67 H11N         3.2000    -4.8740    -6.5400 hn         1 FH9       0.218800
     68 H12N         2.9280    -6.2860    -5.7630 hn         1 FH9       0.218800
     69 H131         2.0400    -5.8920    -7.0780 hn         1 FH9       0.218800
@<TRIPOS>BOND
     1     1     2 1   
     2     1     6 1   
     3     1    30 1   
     4     1    31 1   
     5     2     3 1   
     6     2    32 1   
     7     2    33 1   
     8     3     4 1   
     9     3    35 1   
    10     3    36 1   
    11     4     5 1   
    12     4    37 1   
    13     4    38 1   
    14     5     6 1   
    15     5    39 1   
    16     5    40 1   
    17     6     7 1   
    18     6    34 1   
    19     7     8 1   
    20     7    41 1   
    21     7    42 1   
    22     8     9 1   
    23     8    17 1   
    24     8    43 1   
    25     9    10 2   
    26     9    11 1   
    27    11    12 1   
    28    11    45 1   
    29    12    13 1   
    30    12    46 1   
    31    12    47 1   
    32    13    14 1   
    33    13    48 1   
    34    13    49 1   
    35    14    15 1   
    36    14    16 1   
    37    14    50 1   
    38    15    51 1   
    39    15    52 1   
    40    15    53 1   
    41    16    54 1   
    42    16    55 1   
    43    16    56 1   
    44    17    18 1   
    45    17    44 1   
    46    18    19 2   
    47    18    20 1   
    48    20    21 1   
    49    20    57 1   
    50    21    22 1   
    51    21    25 1   
    52    21    58 1   
    53    22    23 1   
    54    22    24 1   
    55    25    26 1   
    56    25    59 1   
    57    25    60 1   
    58    26    27 1   
    59    26    61 1   
    60    26    62 1   
    61    27    28 1   
    62    27    63 1   
    63    27    64 1   
    64    28    29 1   
    65    28    65 1   
    66    28    66 1   
    67    29    67 1   
    68    29    68 1   
    69    29    69 1   
@<TRIPOS>SUBSTRUCTURE
     1 FH9         1 TEMP              0 ****  ****    0 ROOT
