@<TRIPOS>MOLECULE
molecule
   44    46     1     0     0
SMALL
bcc


@<TRIPOS>ATOM
      1 N1           0.0000     0.0000     0.0000 nb         1 FHA      -0.783000
      2 C2           1.3210     0.0000     0.0000 ca         1 FHA       0.600900
      3 N3           2.0270     0.0000     1.1110 nb         1 FHA      -0.811000
      4 C4           1.4260     0.0010     2.2960 ca         1 FHA       0.453800
      5 C5           0.0220     0.0010     2.3490 ca         1 FHA      -0.161200
      6 C6          -0.6880     0.0000     1.1370 ca         1 FHA       0.624200
      7 N6          -2.0730     0.0000     1.1270 nv         1 FHA      -1.060500
      8 N7          -0.3280     0.0010     3.6580 nc         1 FHA      -0.616100
      9 C8           0.7460     0.0010     4.3930 cd         1 FHA       0.406700
     10 N9           1.8540     0.0010     3.5990 na         1 FHA      -0.251000
     11 PA           4.6360    -1.9040     9.4200 p5         1 FHA       1.132600
     12 PB           4.8460    -4.2010    11.3020 p5         1 FHA       1.264600
     13 PG           5.1080    -6.8310    12.6440 p5         1 FHA       1.333900
     14 C1'          3.2460    -0.0000     4.0550 c3         1 FHA       0.254800
     15 F1A          3.7760    -4.3440     8.8910 f          1 FHA      -0.270300
     16 O1A          3.2460    -1.4690    10.1070 o          1 FHA      -0.790500
     17 O1B          3.5680    -3.8010    11.9330 o          1 FHA      -0.820000
     18 O1G          5.7970    -8.1990    12.1520 o          1 FHA      -0.827500
     19 C2'          3.7730     1.4470     4.1770 c3         1 FHA      -0.157400
     20 O2A          5.7590    -1.2330    10.1140 o          1 FHA      -0.790500
     21 O2B          6.0680    -3.4720    12.0560 o          1 FHA      -0.820000
     22 O2G          5.9150    -6.2350    13.7330 o          1 FHA      -0.827500
     23 C3'          4.6790     1.4120     5.4280 c3         1 FHA       0.101100
     24 O3'          6.0250     1.7460     5.0810 oh         1 FHA      -0.603800
     25 C3A          4.8370    -3.7120     9.5460 c3         1 FHA      -0.151800
     26 O3G          3.6240    -7.1430    13.1850 o          1 FHA      -0.827500
     27 C4'          4.5940    -0.0520     5.9130 c3         1 FHA       0.129100
     28 O4'          3.3390    -0.5410     5.3910 os         1 FHA      -0.371600
     29 C5'          4.5910    -0.1080     7.4430 c3         1 FHA       0.235400
     30 O5'          4.6280    -1.4700     7.8700 os         1 FHA      -0.581200
     31 H2           1.8420    -0.0000    -0.9500 h5         1 FHA       0.017100
     32 HN6         -2.5730     0.8670     1.1080 hn         1 FHA       0.407300
     33 HN6A        -2.5730    -0.8670     1.1090 hn         1 FHA       0.407300
     34 H8           0.7580     0.0010     5.4760 h5         1 FHA       0.099800
     35 H1'          3.8700    -0.5700     3.3770 h2         1 FHA       0.075700
     36 H2'          4.3500     1.7150     3.3000 hc         1 FHA       0.053700
     37 H2'A         2.9510     2.1380     4.3250 hc         1 FHA       0.053700
     38 H3'          4.2980     2.0840     6.1880 h1         1 FHA       0.049700
     39 HO3'         6.2090     2.6310     5.3500 ho         1 FHA       0.385000
     40 H3A          5.7720    -4.0040     9.0850 h1         1 FHA       0.029700
     41 H4'          5.4180    -0.6290     5.5110 h1         1 FHA       0.071700
     42 H5'          3.6910     0.3640     7.8190 h1         1 FHA       0.030700
     43 H5'A         5.4600     0.4140     7.8240 h1         1 FHA       0.030700
     44 O3B          5.0230    -5.7970    11.4120 os         1 FHA      -0.728800
@<TRIPOS>BOND
     1     2     1 ar
     2     1     6 ar
     3     2     3 ar
     4     2    31 1
     5     3     4 ar
     6     4     5 ar
     7     4    10 1
     8     6     5 ar
     9     5     8 1
    10     6     7 1
    11     7    32 1
    12     7    33 1
    13     8     9 2
    14    10     9 1
    15     9    34 1
    16    14    10 1
    17    30    11 1
    18    25    11 1
    19    11    20 1
    20    11    16 1
    21    17    12 1
    22    12    21 1
    23    12    25 1
    24    12    44 1
    25    44    13 1
    26    13    22 1
    27    13    26 1
    28    13    18 1
    29    19    14 1
    30    14    28 1
    31    14    35 1
    32    15    25 1
    33    19    23 1
    34    19    36 1
    35    19    37 1
    36    24    23 1
    37    23    27 1
    38    23    38 1
    39    24    39 1
    40    25    40 1
    41    28    27 1
    42    27    29 1
    43    27    41 1
    44    29    30 1
    45    29    42 1
    46    29    43 1
@<TRIPOS>SUBSTRUCTURE
     1 FHA         1 TEMP              0 ****  ****    0 ROOT
