@<TRIPOS>MOLECULE
molecule
   15    15     1     0     0
SMALL
bcc


@<TRIPOS>ATOM
      1 C1           0.0000     0.0000     0.0000 ca         1 FHB      -0.083600
      2 C2           1.3980     0.0000     0.0000 ca         1 FHB      -0.124000
      3 C3           2.0840     0.0000     1.1950 ca         1 FHB       0.078900
      4 F3           3.4350     0.0040     1.1970 f          1 FHB      -0.159900
      5 C4           1.3880    -0.0100     2.3990 ca         1 FHB       0.029100
      6 O4           2.0680    -0.0150     3.5740 oh         1 FHB      -0.524100
      7 C5          -0.0010    -0.0150     2.4020 ca         1 FHB      -0.165000
      8 C6          -0.6950    -0.0090     1.2130 ca         1 FHB      -0.111000
      9 C7          -0.7400     0.0070    -1.2750 c          1 FHB       0.881200
     10 O1          -1.9540     0.0030    -1.2730 o          1 FHB      -0.831800
     11 O2          -0.0680     0.0160    -2.4430 o          1 FHB      -0.831800
     12 H2           1.9410     0.0070    -0.9380 ha         1 FHB       0.172000
     13 HO4          2.1160     0.8640     3.9130 ho         1 FHB       0.400000
     14 H5          -0.5400    -0.0230     3.3420 ha         1 FHB       0.119000
     15 H6          -1.7780    -0.0110     1.2170 ha         1 FHB       0.152000
@<TRIPOS>BOND
     1     1     2 ar
     2     1     8 ar
     3     1     9 1
     4     2     3 ar
     5     2    12 1
     6     3     4 1
     7     3     5 ar
     8     5     6 1
     9     5     7 ar
    10     6    13 1
    11     7     8 ar
    12     7    14 1
    13     8    15 1
    14     9    10 1
    15     9    11 1
@<TRIPOS>SUBSTRUCTURE
     1 FHB         1 TEMP              0 ****  ****    0 ROOT
