@<TRIPOS>MOLECULE
FHB
   15    15     1     0     0
SMALL
bcc


@<TRIPOS>ATOM
      1 C1         -0.0190    0.0060    0.0000 ca        1 FHB     -0.136600
      2 C2          1.3710    0.1130    0.0300 ca        1 FHB     -0.098000
      3 C3          2.0420    0.1680    1.2610 ca        1 FHB      0.000900
      4 F3          3.3980    0.2720    1.3190 f         1 FHB     -0.175900
      5 C4          1.3040    0.1140    2.4650 ca        1 FHB      0.059100
      6 O4          1.9110    0.1640    3.7060 oh        1 FHB     -0.516100
      7 C5         -0.0920    0.0070    2.4300 ca        1 FHB     -0.167000
      8 C6         -0.7390   -0.0460    1.1990 ca        1 FHB     -0.088000
      9 C7         -0.7510   -0.0530   -1.3360 c         1 FHB      0.911200
     10 O1         -2.0100   -0.1490   -1.3110 o         1 FHB     -0.827800
     11 O2         -0.0580   -0.0040   -2.3900 o         1 FHB     -0.827800
     12 H2          1.9270    0.1530   -0.9210 ha        1 FHB      0.168000
     13 HO4         2.8640    0.2370    3.5540 ho        1 FHB      0.412000
     14 H5         -0.6510   -0.0340    3.3740 ha        1 FHB      0.128000
     15 H6         -1.8370   -0.1300    1.1400 ha        1 FHB      0.159000
@<TRIPOS>BOND
     1    1    2 ar  
     2    1    8 ar  
     3    1    9 1   
     4    2    3 ar  
     5    2   12 1   
     6    3    4 1   
     7    3    5 ar  
     8    5    6 1   
     9    5    7 ar  
    10    6   13 1   
    11    7    8 ar  
    12    7   14 1   
    13    8   15 1   
    14    9   10 1   
    15    9   11 1   
@<TRIPOS>SUBSTRUCTURE
     1 FHB         1 TEMP              0 ****  ****    0 ROOT
