@<TRIPOS>MOLECULE
molecule
   19    19     1     0     0
SMALL
bcc


@<TRIPOS>ATOM
      1 C1           0.0000     0.0000     0.0000 ca         1 FHC      -0.001800
      2 C7          -0.7370     0.0050    -1.2710 ce         1 FHC      -0.566200
      3 C8          -1.8070     0.8180    -1.4300 cf         1 FHC       0.250300
      4 C9          -2.0820     1.8230    -0.4700 c          1 FHC       0.829800
      5 O3          -1.2790     2.0470     0.4290 o          1 FHC      -0.792800
      6 O2          -3.1200     2.4690    -0.5390 o          1 FHC      -0.792800
      7 F1          -2.6150     0.6700    -2.5030 f          1 FHC      -0.151500
      8 C6           1.4000     0.0000     0.0000 ca         1 FHC      -0.092000
      9 C5           2.0850     0.0000     1.1940 ca         1 FHC      -0.167000
     10 C4           1.3900    -0.0120     2.3980 ca         1 FHC       0.069100
     11 O1           2.0710    -0.0170     3.5720 oh         1 FHC      -0.533100
     12 C3          -0.0010    -0.0110     2.4030 ca         1 FHC      -0.167000
     13 C2          -0.6960    -0.0050     1.2140 ca         1 FHC      -0.092000
     14 HC7          0.0550     0.7270    -1.1100 ha         1 FHC       0.308000
     15 HC6          1.9430     0.0090    -0.9380 ha         1 FHC       0.134500
     16 HC5          3.1690     0.0000     1.1950 ha         1 FHC       0.117000
     17 HO1          2.2300    -0.9070     3.8390 ho         1 FHC       0.395000
     18 HC3         -0.5380    -0.0170     3.3440 ha         1 FHC       0.117000
     19 HC2         -1.7790    -0.0050     1.2190 ha         1 FHC       0.134500
@<TRIPOS>BOND
     1     1     2 1
     2     1     8 ar
     3     1    13 ar
     4     2     3 2
     5     2    14 1
     6     3     4 1
     7     3     7 1
     8     4     5 1
     9     4     6 1
    10     8     9 ar
    11     8    15 1
    12     9    10 ar
    13     9    16 1
    14    10    11 1
    15    10    12 ar
    16    11    17 1
    17    12    13 ar
    18    12    18 1
    19    13    19 1
@<TRIPOS>SUBSTRUCTURE
     1 FHC         1 TEMP              0 ****  ****    0 ROOT
