@<TRIPOS>MOLECULE
FHC
   19    19     1     0     0
SMALL
bcc


@<TRIPOS>ATOM
      1 C1          0.0940    0.1470   -0.0040 ca        1 FHC     -0.011800
      2 C7         -0.5750    0.4460   -1.2520 ce        1 FHC     -0.256200
      3 C8         -1.6880    1.2020   -1.4320 cf        1 FHC      0.111300
      4 C9         -2.4990    1.9720   -0.3670 c         1 FHC      0.910800
      5 O3         -2.2650    3.2010   -0.2560 o         1 FHC     -0.802300
      6 O2         -3.3420    1.3140    0.2990 o         1 FHC     -0.802300
      7 F1         -2.1640    1.3500   -2.6950 f         1 FHC     -0.199500
      8 C6          1.4600   -0.1880   -0.0400 ca        1 FHC     -0.105500
      9 C5          2.1570   -0.5120    1.1200 ca        1 FHC     -0.187500
     10 C4          1.4760   -0.5030    2.3440 ca        1 FHC      0.081100
     11 O1          2.2090   -0.8380    3.4690 oh        1 FHC     -0.521100
     12 C3          0.1160   -0.1770    2.4040 ca        1 FHC     -0.187500
     13 C2         -0.5680    0.1430    1.2350 ca        1 FHC     -0.105500
     14 HC7        -0.0920    0.0040   -2.1420 ha        1 FHC      0.103000
     15 HC6         1.9900   -0.1890   -1.0030 ha        1 FHC      0.158500
     16 HC5         3.2230   -0.7690    1.0890 ha        1 FHC      0.124000
     17 HO1         1.6260   -0.7300    4.2320 ho        1 FHC      0.406000
     18 HC3        -0.4100   -0.1680    3.3680 ha        1 FHC      0.124000
     19 HC2        -1.6440    0.4040    1.2780 ha        1 FHC      0.158500
@<TRIPOS>BOND
     1    1    2 1   
     2    1    8 ar  
     3    1   13 ar  
     4    2    3 2   
     5    2   14 1   
     6    3    4 1   
     7    3    7 1   
     8    4    5 1   
     9    4    6 1   
    10    8    9 ar  
    11    8   15 1   
    12    9   10 ar  
    13    9   16 1   
    14   10   11 1   
    15   10   12 ar  
    16   11   17 1   
    17   12   13 ar  
    18   12   18 1   
    19   13   19 1   
@<TRIPOS>SUBSTRUCTURE
     1 FHC         1 TEMP              0 ****  ****    0 ROOT
