@<TRIPOS>MOLECULE
FHF
   55    55     1     0     0
SMALL
bcc


@<TRIPOS>ATOM
      1 C            0.0000     0.0000     0.0000 c          1 FHF       0.596100
      2 N            1.9950     1.1960    -0.6910 ns         1 FHF      -0.235900
      3 O           -0.6030    -0.9130     0.5110 o          1 FHF      -0.534100
      4 CA           1.5070     0.0000     0.0000 c3         1 FHF      -0.064300
      5 CB           2.0190     0.0000     1.4420 c3         1 FHF      -0.057700
      6 CAA         -4.5300     4.3450    -0.0170 c3         1 FHF       0.006900
      7 OAD          1.7020    -0.8550    -3.4450 o          1 FHF      -0.601100
      8 OAG          0.5420     1.5320    -3.7210 oh         1 FHF      -0.438100
      9 CAI          0.7030    -0.6650    -2.7840 c          1 FHF       0.602900
     10 CAJ          7.1070     2.0790    -4.2610 ca         1 FHF      -0.098000
     11 CAK          6.2850     0.9720    -4.1640 ca         1 FHF      -0.092000
     12 CAL          6.7770     3.2500    -3.6020 ca         1 FHF      -0.118000
     13 CAM          5.1300     1.0300    -3.4090 ca         1 FHF      -0.078000
     14 CAN         -3.8620     3.0800     0.5260 c3         1 FHF      -0.026400
     15 CAP         -2.0120     1.4380     0.1740 c3         1 FHF      -0.016400
     16 CAQ         -1.1510     0.7440    -2.0660 c3         1 FHF       0.061000
     17 CAT          3.1730     1.1640    -1.3450 c          1 FHF       0.575100
     18 CAV          5.6210     3.3150    -2.8450 ca         1 FHF       0.055900
     19 CAW          4.7930     2.2020    -2.7460 ca         1 FHF      -0.094400
     20 CAY         -0.7540     1.1360    -0.6420 c3         1 FHF      -0.182700
     21 CG1          1.4030     1.1780     2.2010 c3         1 FHF      -0.004600
     22 CG2          1.6190    -1.3110     2.1240 c3         1 FHF      -0.004600
     23 HN           1.4790     2.0510    -0.6350 hn         1 FHF       0.184500
     24 HA           1.8680    -0.8850    -0.5110 h1         1 FHF       0.095700
     25 HB           3.0980     0.0930     1.4430 hc         1 FHF       0.051700
     26 HAA         -5.3730     4.6060     0.6110 hc         1 FHF       0.002033
     27 HAAA        -3.8140     5.1590    -0.0170 hc         1 FHF       0.002033
     28 HAAB        -4.8740     4.1670    -1.0280 hc         1 FHF       0.002033
     29 HOAG         0.1320     1.4590    -4.5670 ho         1 FHF       0.397000
     30 HAI          0.3050    -1.4600    -2.1650 h5         1 FHF       0.002200
     31 HAJ          8.0120     2.0290    -4.8540 ha         1 FHF       0.104000
     32 HAK          6.5470     0.0570    -4.6820 ha         1 FHF       0.108000
     33 HAL          7.4230     4.1160    -3.6800 ha         1 FHF       0.115000
     34 HAM          4.4870     0.1610    -3.3350 ha         1 FHF       0.163000
     35 HAN         -4.5790     2.2680     0.5340 hc         1 FHF       0.015200
     36 HANA        -3.5100     3.2610     1.5350 hc         1 FHF       0.015200
     37 HAP         -1.7410     1.5900     1.2120 hc         1 FHF       0.031200
     38 HAPA        -2.7000     0.6050     0.0980 hc         1 FHF       0.031200
     39 HAQ         -1.7330     1.5420    -2.5120 h1         1 FHF       0.039200
     40 HAQA        -1.7440    -0.1630    -2.0390 h1         1 FHF       0.039200
     41 HAY         -0.1230     2.0160    -0.6720 hc         1 FHF       0.054700
     42 HG1          1.6080     2.0980     1.6670 hc         1 FHF       0.009200
     43 HG1A         0.3320     1.0370     2.2800 hc         1 FHF       0.009200
     44 HG1B         1.8350     1.2330     3.1930 hc         1 FHF       0.009200
     45 HG2          2.3160    -1.5290     2.9230 hc         1 FHF       0.009200
     46 HG2A         0.6200    -1.2150     2.5320 hc         1 FHF       0.009200
     47 HG2B         1.6370    -2.1150     1.3990 hc         1 FHF       0.009200
     48 NBA          0.0560     0.5140    -2.8640 n          1 FHF      -0.071300
     49 OAE          3.8320     0.1410    -1.3610 o          1 FHF      -0.681100
     50 CAO         -2.6800     2.7040    -0.3690 c3         1 FHF      -0.036400
     51 NAR          3.6220     2.2650    -1.9800 ns         1 FHF      -0.032100
     52 FAH          5.2980     4.4590    -2.2020 f          1 FHF      -0.134900
     53 HAO         -3.0340     2.5220    -1.3760 hc         1 FHF       0.015700
     54 HAOA        -1.9620     3.5150    -0.3790 hc         1 FHF       0.015700
     55 HNAR         3.1320     3.1320    -1.8850 hn         1 FHF       0.165500
@<TRIPOS>BOND
     1     1     3 2   
     2     1     4 1   
     3     1    20 1   
     4     2     4 1   
     5     2    17 1   
     6     2    23 1   
     7     4     5 1   
     8     4    24 1   
     9     5    21 1   
    10     5    22 1   
    11     5    25 1   
    12     6    14 1   
    13     6    26 1   
    14     6    27 1   
    15     6    28 1   
    16     7     9 2   
    17     8    29 1   
    18     8    48 1   
    19     9    30 1   
    20     9    48 1   
    21    10    11 ar  
    22    10    12 ar  
    23    10    31 1   
    24    11    13 ar  
    25    11    32 1   
    26    12    18 ar  
    27    12    33 1   
    28    13    19 ar  
    29    13    34 1   
    30    14    35 1   
    31    14    36 1   
    32    14    50 1   
    33    15    20 1   
    34    15    37 1   
    35    15    38 1   
    36    15    50 1   
    37    16    20 1   
    38    16    39 1   
    39    16    40 1   
    40    16    48 1   
    41    17    49 2   
    42    17    51 1   
    43    18    19 ar  
    44    18    52 1   
    45    19    51 1   
    46    20    41 1   
    47    21    42 1   
    48    21    43 1   
    49    21    44 1   
    50    22    45 1   
    51    22    46 1   
    52    22    47 1   
    53    50    53 1   
    54    50    54 1   
    55    51    55 1   
@<TRIPOS>SUBSTRUCTURE
     1 FHF         1 TEMP              0 ****  ****    0 ROOT
