@<TRIPOS>MOLECULE
molecule
   55    55     1     0     0
SMALL
bcc


@<TRIPOS>ATOM
      1 C            0.0000     0.0000     0.0000 c          1 FHF       0.559100
      2 N            1.9950     1.1960    -0.6910 ns         1 FHF      -0.599900
      3 O           -0.6030    -0.9130     0.5110 o          1 FHF      -0.513100
      4 CA           1.5070     0.0000     0.0000 c3         1 FHF       0.039700
      5 CB           2.0190     0.0000     1.4420 c3         1 FHF      -0.083700
      6 CAA         -4.5300     4.3450    -0.0170 c3         1 FHF      -0.092100
      7 OAD          1.7020    -0.8550    -3.4450 o          1 FHF      -0.565100
      8 OAG          0.5420     1.5320    -3.7210 oh         1 FHF      -0.372100
      9 CAI          0.7030    -0.6650    -2.7840 c          1 FHF       0.654900
     10 CAJ          7.1070     2.0790    -4.2610 ca         1 FHF      -0.128000
     11 CAK          6.2850     0.9720    -4.1640 ca         1 FHF      -0.126000
     12 CAL          6.7770     3.2500    -3.6020 ca         1 FHF      -0.152000
     13 CAM          5.1300     1.0300    -3.4090 ca         1 FHF      -0.100000
     14 CAN         -3.8620     3.0800     0.5260 c3         1 FHF      -0.083400
     15 CAP         -2.0120     1.4380     0.1740 c3         1 FHF      -0.073400
     16 CAQ         -1.1510     0.7440    -2.0660 c3         1 FHF       0.120000
     17 CAT          3.1730     1.1640    -1.3450 c          1 FHF       0.791100
     18 CAV          5.6210     3.3150    -2.8450 ca         1 FHF       0.085900
     19 CAW          4.7930     2.2020    -2.7460 ca         1 FHF       0.046600
     20 CAY         -0.7540     1.1360    -0.6420 c3         1 FHF      -0.195700
     21 CG1          1.4030     1.1780     2.2010 c3         1 FHF      -0.091600
     22 CG2          1.6190    -1.3110     2.1240 c3         1 FHF      -0.091600
     23 HN           1.4790     2.0510    -0.6350 hn         1 FHF       0.314500
     24 HA           1.8680    -0.8850    -0.5110 h1         1 FHF       0.114700
     25 HB           3.0980     0.0930     1.4430 hc         1 FHF       0.080700
     26 HAA         -5.3730     4.6060     0.6110 hc         1 FHF       0.035033
     27 HAAA        -3.8140     5.1590    -0.0170 hc         1 FHF       0.035033
     28 HAAB        -4.8740     4.1670    -1.0280 hc         1 FHF       0.035033
     29 HOAG         0.1320     1.4590    -4.5670 ho         1 FHF       0.399000
     30 HAI          0.3050    -1.4600    -2.1650 h5         1 FHF       0.047200
     31 HAJ          8.0120     2.0290    -4.8540 ha         1 FHF       0.133000
     32 HAK          6.5470     0.0570    -4.6820 ha         1 FHF       0.138000
     33 HAL          7.4230     4.1160    -3.6800 ha         1 FHF       0.143000
     34 HAM          4.4870     0.1610    -3.3350 ha         1 FHF       0.186000
     35 HAN         -4.5790     2.2680     0.5340 hc         1 FHF       0.043700
     36 HANA        -3.5100     3.2610     1.5350 hc         1 FHF       0.043700
     37 HAP         -1.7410     1.5900     1.2120 hc         1 FHF       0.059200
     38 HAPA        -2.7000     0.6050     0.0980 hc         1 FHF       0.059200
     39 HAQ         -1.7330     1.5420    -2.5120 h1         1 FHF       0.068700
     40 HAQA        -1.7440    -0.1630    -2.0390 h1         1 FHF       0.068700
     41 HAY         -0.1230     2.0160    -0.6720 hc         1 FHF       0.072700
     42 HG1          1.6080     2.0980     1.6670 hc         1 FHF       0.039033
     43 HG1A         0.3320     1.0370     2.2800 hc         1 FHF       0.039033
     44 HG1B         1.8350     1.2330     3.1930 hc         1 FHF       0.039033
     45 HG2          2.3160    -1.5290     2.9230 hc         1 FHF       0.039033
     46 HG2A         0.6200    -1.2150     2.5320 hc         1 FHF       0.039033
     47 HG2B         1.6370    -2.1150     1.3990 hc         1 FHF       0.039033
     48 NBA          0.0560     0.5140    -2.8640 n          1 FHF      -0.392300
     49 OAE          3.8320     0.1410    -1.3610 o          1 FHF      -0.641100
     50 CAO         -2.6800     2.7040    -0.3690 c3         1 FHF      -0.085400
     51 NAR          3.6220     2.2650    -1.9800 ns         1 FHF      -0.478100
     52 FAH          5.2980     4.4590    -2.2020 f          1 FHF      -0.151900
     53 HAO         -3.0340     2.5220    -1.3760 hc         1 FHF       0.041200
     54 HAOA        -1.9620     3.5150    -0.3790 hc         1 FHF       0.041200
     55 HNAR         3.1320     3.1320    -1.8850 hn         1 FHF       0.324500
@<TRIPOS>BOND
     1     1     3 2
     2     1     4 1
     3     1    20 1
     4     2     4 1
     5     2    17 1
     6     4     5 1
     7     5    21 1
     8     5    22 1
     9     6    14 1
    10     7     9 2
    11    49    17 2
    12     8    48 1
    13    52    18 1
    14     9    48 1
    15    10    11 ar
    16    10    12 ar
    17    11    13 ar
    18    12    18 ar
    19    13    19 ar
    20    14    50 1
    21    50    15 1
    22    15    20 1
    23    16    20 1
    24    16    48 1
    25    51    17 1
    26    51    19 1
    27    18    19 ar
    28     2    23 1
    29     4    24 1
    30     5    25 1
    31     6    26 1
    32     6    27 1
    33     6    28 1
    34     8    29 1
    35     9    30 1
    36    10    31 1
    37    11    32 1
    38    12    33 1
    39    13    34 1
    40    14    35 1
    41    14    36 1
    42    50    53 1
    43    50    54 1
    44    15    37 1
    45    15    38 1
    46    16    39 1
    47    16    40 1
    48    51    55 1
    49    20    41 1
    50    21    42 1
    51    21    43 1
    52    21    44 1
    53    22    45 1
    54    22    46 1
    55    22    47 1
@<TRIPOS>SUBSTRUCTURE
     1 FHF         1 TEMP              0 ****  ****    0 ROOT
