@<TRIPOS>MOLECULE
molecule
   46    48     1     0     0
SMALL
bcc


@<TRIPOS>ATOM
      1 P1           0.0000     0.0000     0.0000 p5         1 FHG       1.431800
      2 O1A          1.6100     0.0000     0.0000 o          1 FHG      -0.829500
      3 O2A         -0.4930     0.0000     1.3950 o          1 FHG      -0.829500
      4 O3A         -0.5370     1.3150    -0.7600 os         1 FHG      -0.707800
      5 O5'         -0.5360    -1.3150    -0.7580 os         1 FHG      -0.600200
      6 P2          -0.6270     2.8730    -0.3690 p5         1 FHG       1.183600
      7 O1B         -1.5440     3.0450     0.9440 o          1 FHG      -0.625500
      8 O2B          0.7310     3.3920    -0.0930 o          1 FHG      -0.625500
      9 C3B         -1.3650     3.8050    -1.7500 c3         1 FHG       0.080200
     10 F2B         -2.6490     3.3130    -2.0110 f          1 FHG      -0.201300
     11 P3          -1.4680     5.5700    -1.3080 p5         1 FHG       0.888700
     12 O1G          0.0100     6.1350    -1.0090 o          1 FHG      -0.607167
     13 O2G         -2.1190     6.3930    -2.5290 o          1 FHG      -0.607167
     14 O3G         -2.3100     5.7270    -0.1020 o          1 FHG      -0.607167
     15 C5'         -0.3180    -2.6390    -0.2690 c3         1 FHG       0.241400
     16 C4'         -0.9570    -3.6490    -1.2250 c3         1 FHG       0.133100
     17 O4'         -0.2460    -3.6780    -2.4820 os         1 FHG      -0.380600
     18 C1'         -0.5460    -4.9390    -3.1040 c3         1 FHG       0.268800
     19 N9           0.6190    -5.4110    -3.8570 na         1 FHG      -0.248900
     20 C4           0.6020    -6.2820    -4.9120 cc         1 FHG       0.150800
     21 N3          -0.3650    -6.9390    -5.5630 nd         1 FHG      -0.749100
     22 C2          -0.0860    -7.7350    -6.5720 cc         1 FHG       0.069800
     23 N2          -1.1100    -8.3890    -7.2090 nz         1 FHG      -0.604600
     24 N1           1.1920    -7.9280    -7.0040 ns         1 FHG      -0.479400
     25 C6           2.2210    -7.2980    -6.3950 c          1 FHG       0.682000
     26 O6           3.3680    -7.4640    -6.7740 o          1 FHG      -0.733500
     27 C5           1.9350    -6.4400    -5.3080 cd         1 FHG       0.054800
     28 N7           2.6910    -5.6690    -4.4880 nd         1 FHG      -0.640000
     29 C8           1.9190    -5.0590    -3.6370 cc         1 FHG       0.367400
     30 C2'         -0.8830    -5.9360    -1.9790 c3         1 FHG      -0.157400
     31 C3'         -0.7960    -5.0910    -0.6820 c3         1 FHG       0.100100
     32 O3'         -1.8570    -5.4260     0.2150 oh         1 FHG      -0.603800
     33 H3          -0.7480     3.6890    -2.6330 h1         1 FHG       0.084700
     34 H6          -0.7650    -2.7390     0.7130 h1         1 FHG       0.036200
     35 H7           0.7460    -2.8290    -0.2020 h1         1 FHG       0.036200
     36 H8          -2.0030    -3.4200    -1.3870 h1         1 FHG       0.064700
     37 H9          -1.3980    -4.8290    -3.7640 h2         1 FHG       0.061700
     38 H10         -1.9810    -8.1400    -6.7830 hn         1 FHG       0.340133
     39 H11         -1.1240    -8.1260    -8.1750 hn         1 FHG       0.340133
     40 H12          1.3690    -8.5400    -7.7760 hn         1 FHG       0.265500
     41 H13          2.2570    -4.3730    -2.8700 h5         1 FHG       0.066100
     42 H14         -0.1550    -6.7380    -1.9560 hc         1 FHG       0.056200
     43 H15         -1.8850    -6.3270    -2.1090 hc         1 FHG       0.056200
     44 H16          0.1700    -5.2160    -0.2090 h1         1 FHG       0.050700
     45 H17         -1.5310    -6.0000     0.8880 ho         1 FHG       0.387000
     46 H23         -0.9680    -9.3770    -7.1430 hn         1 FHG       0.340133
@<TRIPOS>BOND
     1    23    22 1
     2    22    24 1
     3    22    21 2
     4    24    25 1
     5    21    20 1
     6    25    26 2
     7    25    27 1
     8    20    27 2
     9    20    19 1
    10    30    18 1
    11    30    31 1
    12    27    28 1
    13    18    19 1
    14    18    17 1
    15    19    29 1
    16    32    31 1
    17    31    16 1
    18    28    29 2
    19    17    16 1
    20    16    15 1
    21     7     6 1
    22    15     5 1
    23     5     1 1
    24     6     4 1
    25     6     8 1
    26     6     9 1
    27     4     1 1
    28     9    10 1
    29     9    11 1
    30     1     3 1
    31     1     2 1
    32    14    11 1
    33    11    12 1
    34    11    13 1
    35     9    33 1
    36    15    34 1
    37    15    35 1
    38    16    36 1
    39    18    37 1
    40    23    38 1
    41    23    39 1
    42    24    40 1
    43    29    41 1
    44    30    42 1
    45    30    43 1
    46    31    44 1
    47    32    45 1
    48    46    23 1
@<TRIPOS>SUBSTRUCTURE
     1 FHG         1 TEMP              0 ****  ****    0 ROOT
