@<TRIPOS>MOLECULE
FHG
   46    48     1     0     0
SMALL
bcc


@<TRIPOS>ATOM
      1 P1          0.0000    0.0000    0.0000 p5        1 FHG      0.970800
      2 O1A         1.6100    0.0000    0.0000 o         1 FHG     -0.663000
      3 O2A        -0.4930    0.0000    1.3950 o         1 FHG     -0.663000
      4 O3A        -0.5370    1.3150   -0.7600 os        1 FHG     -0.505800
      5 O5'        -0.5360   -1.3150   -0.7580 os        1 FHG     -0.501200
      6 P2         -0.6270    2.8730   -0.3690 p5        1 FHG      0.703600
      7 O1B        -1.5440    3.0450    0.9440 o         1 FHG     -0.448000
      8 O2B         0.7310    3.3920   -0.0930 o         1 FHG     -0.448000
      9 C3B        -1.3650    3.8050   -1.7500 c3        1 FHG      0.580200
     10 F2B        -2.6490    3.3130   -2.0110 f         1 FHG     -0.200300
     11 P3         -1.4680    5.5700   -1.3080 p5        1 FHG      0.479700
     12 O1G         0.0100    6.1350   -1.0090 o         1 FHG     -0.501167
     13 O2G        -2.1190    6.3930   -2.5290 o         1 FHG     -0.501167
     14 O3G        -2.3100    5.7270   -0.1020 o         1 FHG     -0.501167
     15 C5'        -0.3180   -2.6390   -0.2690 c3        1 FHG      0.315400
     16 C4'        -0.9560   -3.6490   -1.2250 c3        1 FHG      0.151100
     17 O4'        -0.2460   -3.6780   -2.4820 os        1 FHG     -0.369600
     18 C1'        -0.5460   -4.9390   -3.1040 c3        1 FHG      0.184800
     19 N9          0.6190   -5.4110   -3.8570 na        1 FHG      0.165100
     20 C4          0.6020   -6.2820   -4.9120 cc        1 FHG      0.007800
     21 N3         -0.3650   -6.9390   -5.5630 nc        1 FHG     -0.721100
     22 C2         -0.0860   -7.7350   -6.5720 cd        1 FHG     -0.400200
     23 N2         -1.1100   -8.3890   -7.2090 nz        1 FHG      0.363400
     24 N1          1.1920   -7.9280   -7.0040 ns        1 FHG     -0.017400
     25 C6          2.2210   -7.2980   -6.3950 c         1 FHG      0.604000
     26 O6          3.3680   -7.4640   -6.7740 o         1 FHG     -0.818500
     27 C5          1.9350   -6.4400   -5.3080 cd        1 FHG     -0.054200
     28 N7          2.6910   -5.6690   -4.4880 nd        1 FHG     -0.530000
     29 C8          1.9190   -5.0590   -3.6370 cc        1 FHG      0.131400
     30 C2'        -0.8830   -5.9360   -1.9790 c3        1 FHG     -0.116400
     31 C3'        -0.7960   -5.0910   -0.6820 c3        1 FHG      0.146100
     32 O3'        -1.8570   -5.4260    0.2150 oh        1 FHG     -0.586800
     33 H3         -0.7480    3.6890   -2.6330 h1        1 FHG      0.012700
     34 H6          0.7460   -2.8290   -0.2020 h1        1 FHG     -0.015800
     35 H7         -0.7650   -2.7390    0.7130 h1        1 FHG     -0.015800
     36 H8         -2.0030   -3.4200   -1.3870 h1        1 FHG      0.020700
     37 H9         -1.3980   -4.8290   -3.7640 h2        1 FHG      0.021700
     38 H10        -0.9570   -9.3770   -7.1600 hn        1 FHG      0.053467
     39 H11        -1.1430   -8.1030   -8.1680 hn        1 FHG      0.053467
     40 H12         1.3690   -8.5400   -7.7760 hn        1 FHG      0.100500
     41 H13         2.2570   -4.3730   -2.8700 h5        1 FHG      0.019100
     42 H14        -1.8850   -6.3270   -2.1090 hc        1 FHG      0.027200
     43 H15        -0.1550   -6.7380   -1.9560 hc        1 FHG      0.027200
     44 H16         0.1700   -5.2160   -0.2090 h1        1 FHG      0.015700
     45 H17        -1.5350   -6.0150    0.8760 ho        1 FHG      0.370000
     46 H23        -1.9780   -8.1630   -6.7640 hn        1 FHG      0.053467
@<TRIPOS>BOND
     1    1    2 1   
     2    1    3 1   
     3    1    4 1   
     4    1    5 1   
     5    4    6 1   
     6    5   15 1   
     7    6    7 1   
     8    6    8 1   
     9    6    9 1   
    10    9   10 1   
    11    9   11 1   
    12    9   33 1   
    13   11   12 1   
    14   11   13 1   
    15   11   14 1   
    16   15   16 1   
    17   15   34 1   
    18   15   35 1   
    19   16   17 1   
    20   16   31 1   
    21   16   36 1   
    22   17   18 1   
    23   18   19 1   
    24   18   30 1   
    25   18   37 1   
    26   19   20 1   
    27   19   29 1   
    28   20   21 1   
    29   20   27 2   
    30   21   22 2   
    31   22   23 1   
    32   22   24 1   
    33   23   38 1   
    34   23   39 1   
    35   23   46 1   
    36   24   25 1   
    37   24   40 1   
    38   25   26 2   
    39   25   27 1   
    40   27   28 1   
    41   28   29 2   
    42   29   41 1   
    43   30   31 1   
    44   30   42 1   
    45   30   43 1   
    46   31   32 1   
    47   31   44 1   
    48   32   45 1   
@<TRIPOS>SUBSTRUCTURE
     1 FHG         1 TEMP              0 ****  ****    0 ROOT
