@<TRIPOS>MOLECULE
FHH
   38    39     1     0     0
SMALL
bcc


@<TRIPOS>ATOM
      1 C            0.0000     0.0000     0.0000 c          1 FHH       0.621300
      2 O            1.2170     0.0000     0.0000 o          1 FHH      -0.683100
      3 C1           0.0550    -0.0990    -2.4340 c3         1 FHH       0.051000
      4 C10         -2.1390     0.0000     3.6500 cc         1 FHH      -0.147600
      5 C11         -0.3000    -0.2310     5.1080 c3         1 FHH       0.055800
      6 C12         -2.1490     0.1150     1.2940 c          1 FHH       0.593700
      7 C13         -1.4770     0.2680     5.9720 c3         1 FHH      -0.024400
      8 C14         -2.6900    -0.0230     5.0630 c3         1 FHH       0.041800
      9 C2          -0.9380    -0.0670    -3.5970 c3         1 FHH      -0.034400
     10 C3          -0.1780    -0.1780    -4.9200 c3         1 FHH      -0.064400
     11 C4          -1.1560    -0.1460    -6.0660 c          1 FHH       0.690100
     12 C6          -1.7110    -0.1940    -8.3830 c3         1 FHH       0.270700
     13 C7          -0.7350    -0.0000     1.2740 cc         1 FHH      -0.307400
     14 C8          -0.0590    -0.1210     2.4850 cd         1 FHH       0.082000
     15 C9          -0.7870    -0.1180     3.6780 cd         1 FHH      -0.209200
     16 N11         -2.8020     0.1120     2.4680 ns         1 FHH       0.135900
     17 NA          -0.6730     0.0070    -1.1680 ns         1 FHH      -0.220900
     18 O2          -2.3390    -0.0460    -5.8480 o          1 FHH      -0.585000
     19 O4          -0.7110    -0.2310    -7.3300 os         1 FHH      -0.418900
     20 H1           0.6070    -1.0310    -2.4560 h1         1 FHH       0.019700
     21 H2           0.7450     0.7310    -2.5250 h1         1 FHH       0.019700
     22 H3          -0.0930    -1.2680     5.3400 hc         1 FHH       0.025200
     23 H4           0.5570     0.4160     5.2530 hc         1 FHH       0.025200
     24 H5          -1.5450    -0.3150     6.8820 hc         1 FHH       0.026700
     25 H6          -3.4430     0.7460     5.1840 hc         1 FHH       0.025700
     26 H7          -1.4900     0.8650    -3.5750 hc         1 FHH       0.034200
     27 H8          -1.6270    -0.8970    -3.5060 hc         1 FHH       0.034200
     28 H9           0.5120     0.6520    -5.0110 hc         1 FHH       0.037700
     29 H10          0.3740    -1.1100    -4.9420 hc         1 FHH       0.037700
     30 H11         -1.2230    -0.2700    -9.3470 h1         1 FHH       0.000700
     31 H12         -2.2600     0.7380    -8.3280 h1         1 FHH       0.000700
     32 H13         -2.3960    -1.0240    -8.2590 h1         1 FHH       0.000700
     33 H15          1.0220    -0.0660     2.5090 ha         1 FHH       0.132000
     34 H16         -1.6710     0.0890    -1.1690 hn         1 FHH       0.241500
     35 H17         -1.3880     1.3340     6.1440 hc         1 FHH       0.026700
     36 H18         -3.1010    -1.0000     5.2890 hc         1 FHH       0.025700
     37 H14         -3.7990     0.1930     2.4730 hn         1 FHH       0.165500
     38 O13         -2.7690     0.2170     0.2480 o          1 FHH      -0.726500
@<TRIPOS>BOND
     1     1     2 2   
     2     1    13 1   
     3     1    17 1   
     4     3     9 1   
     5     3    17 1   
     6     3    20 1   
     7     3    21 1   
     8     4     8 1   
     9     4    15 2   
    10     4    16 1   
    11     5     7 1   
    12     5    15 1   
    13     5    22 1   
    14     5    23 1   
    15     6    13 1   
    16     6    16 1   
    17     6    38 2   
    18     7     8 1   
    19     7    24 1   
    20     7    35 1   
    21     8    25 1   
    22     8    36 1   
    23     9    10 1   
    24     9    26 1   
    25     9    27 1   
    26    10    11 1   
    27    10    28 1   
    28    10    29 1   
    29    11    18 2   
    30    11    19 1   
    31    12    19 1   
    32    12    30 1   
    33    12    31 1   
    34    12    32 1   
    35    13    14 2   
    36    14    15 1   
    37    14    33 1   
    38    16    37 1   
    39    17    34 1   
@<TRIPOS>SUBSTRUCTURE
     1 FHH         1 TEMP              0 ****  ****    0 ROOT
