@<TRIPOS>MOLECULE
molecule
   38    39     1     0     0
SMALL
bcc


@<TRIPOS>ATOM
      1 C            0.0000     0.0000     0.0000 c          1 FHH       0.694300
      2 O            1.2170     0.0000     0.0000 o          1 FHH      -0.635100
      3 C1           0.0550    -0.0990    -2.4340 c3         1 FHH       0.112000
      4 C10         -2.1390     0.0000     3.6500 cc         1 FHH       0.050400
      5 C11         -0.3000    -0.2310     5.1080 c3         1 FHH      -0.022200
      6 C12         -2.1490     0.1150     1.2940 c          1 FHH       0.703700
      7 C13         -1.4770     0.2680     5.9720 c3         1 FHH      -0.078400
      8 C14         -2.6900    -0.0230     5.0630 c3         1 FHH      -0.047200
      9 C2          -0.9380    -0.0670    -3.5970 c3         1 FHH      -0.090400
     10 C3          -0.1780    -0.1780    -4.9200 c3         1 FHH      -0.124400
     11 C4          -1.1560    -0.1460    -6.0660 c          1 FHH       0.629100
     12 C6          -1.7110    -0.1940    -8.3830 c3         1 FHH       0.139700
     13 C7          -0.7350    -0.0000     1.2740 cc         1 FHH      -0.296400
     14 C8          -0.0590    -0.1210     2.4850 cd         1 FHH       0.048000
     15 C9          -0.7870    -0.1180     3.6780 cd         1 FHH      -0.214200
     16 N11         -2.8020     0.1120     2.4680 ns         1 FHH      -0.385100
     17 NA          -0.6730     0.0070    -1.1680 ns         1 FHH      -0.580900
     18 O2          -2.3390    -0.0460    -5.8480 o          1 FHH      -0.548000
     19 O4          -0.7110    -0.2310    -7.3300 os         1 FHH      -0.431900
     20 H1           0.6070    -1.0310    -2.4560 h1         1 FHH       0.047200
     21 H2           0.7450     0.7310    -2.5250 h1         1 FHH       0.047200
     22 H3          -0.0930    -1.2680     5.3400 hc         1 FHH       0.059700
     23 H4           0.5570     0.4160     5.2530 hc         1 FHH       0.059700
     24 H5          -1.5450    -0.3150     6.8820 hc         1 FHH       0.060700
     25 H6          -3.4430     0.7460     5.1840 hc         1 FHH       0.064700
     26 H7          -1.4900     0.8650    -3.5750 hc         1 FHH       0.065200
     27 H8          -1.6270    -0.8970    -3.5060 hc         1 FHH       0.065200
     28 H9           0.5120     0.6520    -5.0110 hc         1 FHH       0.074200
     29 H10          0.3740    -1.1100    -4.9420 hc         1 FHH       0.074200
     30 H11         -1.2230    -0.2700    -9.3470 h1         1 FHH       0.049033
     31 H12         -2.2600     0.7380    -8.3280 h1         1 FHH       0.049033
     32 H13         -2.3960    -1.0240    -8.2590 h1         1 FHH       0.049033
     33 H15          1.0220    -0.0660     2.5090 ha         1 FHH       0.167000
     34 H16         -1.6710     0.0890    -1.1690 hn         1 FHH       0.358500
     35 H17         -1.3880     1.3340     6.1440 hc         1 FHH       0.060700
     36 H18         -3.1010    -1.0000     5.2890 hc         1 FHH       0.064700
     37 H14         -3.7990     0.1930     2.4730 hn         1 FHH       0.336500
     38 O13         -2.7690     0.2170     0.2480 o          1 FHH      -0.675500
@<TRIPOS>BOND
     1     9     3 1
     2     9    10 1
     3     3    17 1
     4    10    11 1
     5    17     1 1
     6    19    11 1
     7    19    12 1
     8    11    18 2
     9     2     1 2
    10     1    13 1
    11    38     6 2
    12    13     6 1
    13    13    14 2
    14     6    16 1
    15    14    15 1
    16    16     4 1
    17    15     4 2
    18    15     5 1
    19     4     8 1
    20     5     7 1
    21     8     7 1
    22     3    20 1
    23     3    21 1
    24     5    22 1
    25     5    23 1
    26     7    24 1
    27     8    25 1
    28     9    26 1
    29     9    27 1
    30    10    28 1
    31    10    29 1
    32    12    30 1
    33    12    31 1
    34    12    32 1
    35    14    33 1
    36    17    34 1
    37     7    35 1
    38     8    36 1
    39    16    37 1
@<TRIPOS>SUBSTRUCTURE
     1 FHH         1 TEMP              0 ****  ****    0 ROOT
