@<TRIPOS>MOLECULE
molecule
   25    26     1     0     0
SMALL
bcc


@<TRIPOS>ATOM
      1 FAT          0.0000     0.0000     0.0000 f          1 FHI      -0.117900
      2 CAN          1.3510     0.0000     0.0000 ca         1 FHI       0.172900
      3 CAM          2.0440     0.0000     1.1940 ca         1 FHI      -0.216000
      4 CAF          3.4280     0.0010     1.1940 ca         1 FHI       0.138900
      5 FAE          4.1020     0.0070     2.3640 f          1 FHI      -0.148900
      6 CAG          4.1250    -0.0060    -0.0040 ca         1 FHI      -0.191000
      7 CAH          3.4410    -0.0130    -1.2020 ca         1 FHI      -0.076000
      8 CAO          2.0480    -0.0130    -1.2080 cp         1 FHI      -0.055000
      9 CAP          1.3100    -0.0190    -2.4950 cp         1 FHI      -0.114000
     10 CAI          0.4420    -1.0640    -2.7910 ca         1 FHI      -0.035000
     11 CAJ         -0.2500    -1.0670    -4.0020 ca         1 FHI      -0.117600
     12 CAC         -1.1730    -2.1710    -4.3250 c          1 FHI       0.881200
     13 OAD         -1.3490    -3.1800    -3.4490 o          1 FHI      -0.819300
     14 OAB         -1.7760    -2.1710    -5.3790 o          1 FHI      -0.819300
     15 CAQ          1.4860     1.0220    -3.4070 ca         1 FHI      -0.085000
     16 CAR          0.8030     1.0210    -4.6040 ca         1 FHI      -0.023100
     17 IAS          1.0780     2.5910    -5.9630 i          1 FHI      -0.225900
     18 CAK         -0.0620    -0.0180    -4.9140 ca         1 FHI       0.175100
     19 OAL         -0.7320    -0.0150    -6.0930 oh         1 FHI      -0.461100
     20 HAM          1.5040     0.0010     2.1330 ha         1 FHI       0.152000
     21 HAG          5.2080    -0.0060     0.0010 ha         1 FHI       0.138000
     22 HAH          3.9880    -0.0200    -2.1380 ha         1 FHI       0.147000
     23 HAI          0.3730    -1.9160    -2.1260 ha         1 FHI       0.170000
     24 HAQ          2.1590     1.8380    -3.1710 ha         1 FHI       0.123000
     25 HAL         -0.1160     0.0360    -6.8050 ho         1 FHI       0.407000
@<TRIPOS>BOND
     1     1     2 1
     2     2     3 ar
     3     2     8 ar
     4     3     4 ar
     5     3    20 1
     6     4     5 1
     7     4     6 ar
     8     6     7 ar
     9     6    21 1
    10     7     8 ar
    11     7    22 1
    12     8     9 1
    13     9    10 ar
    14     9    15 ar
    15    10    11 ar
    16    10    23 1
    17    11    12 1
    18    11    18 ar
    19    12    13 1
    20    12    14 1
    21    15    16 ar
    22    15    24 1
    23    16    17 1
    24    16    18 ar
    25    18    19 1
    26    19    25 1
@<TRIPOS>SUBSTRUCTURE
     1 FHI         1 TEMP              0 ****  ****    0 ROOT
