@<TRIPOS>MOLECULE
FHI
   25    26     1     0     0
SMALL
bcc


@<TRIPOS>ATOM
      1 FAT         0.0000   -0.3860    0.0390 f         1 FHI     -0.122900
      2 CAN         1.3400   -0.2000    0.0070 ca        1 FHI      0.155900
      3 CAM         2.0360   -0.2040    1.2290 ca        1 FHI     -0.212000
      4 CAF         3.4230    0.0010    1.2330 ca        1 FHI      0.123900
      5 FAE         4.0990    0.0000    2.4100 f         1 FHI     -0.152900
      6 CAG         4.1140    0.2060    0.0270 ca        1 FHI     -0.184000
      7 CAH         3.4100    0.2020   -1.1710 ca        1 FHI     -0.093000
      8 CAO         2.0230    0.0020   -1.2170 cp        1 FHI     -0.027000
      9 CAP         1.3400    0.0090   -2.5060 cp        1 FHI     -0.145000
     10 CAI         0.3890   -0.9730   -2.8340 ca        1 FHI     -0.021000
     11 CAJ        -0.2280   -0.9940   -4.0780 ca        1 FHI     -0.227600
     12 CAC        -1.2250   -2.1060   -4.3660 c         1 FHI      0.920200
     13 OAD        -1.4050   -2.9840   -3.4820 o         1 FHI     -0.822300
     14 OAB        -1.8280   -2.1030   -5.4840 o         1 FHI     -0.822300
     15 CAQ         1.6530    0.9890   -3.4520 ca        1 FHI     -0.060000
     16 CAR         1.0410    1.0040   -4.7020 ca        1 FHI     -0.053100
     17 IAS         1.5790    2.4880   -5.9730 i         1 FHI     -0.185900
     18 CAK         0.0940    0.0070   -5.0260 ca        1 FHI      0.237100
     19 OAL        -0.4650    0.0700   -6.2630 oh        1 FHI     -0.533100
     20 HAM         1.4930   -0.3650    2.1710 ha        1 FHI      0.154000
     21 HAG         5.2010    0.3620    0.0410 ha        1 FHI      0.140000
     22 HAH         3.9540    0.3530   -2.1180 ha        1 FHI      0.146000
     23 HAI         0.1140   -1.7560   -2.1040 ha        1 FHI      0.168000
     24 HAQ         2.3920    1.7650   -3.1950 ha        1 FHI      0.122000
     25 HAL        -1.1130   -0.6660   -6.3720 ho        1 FHI      0.495000
@<TRIPOS>BOND
     1    1    2 1   
     2    2    3 ar  
     3    2    8 ar  
     4    3    4 ar  
     5    3   20 1   
     6    4    5 1   
     7    4    6 ar  
     8    6    7 ar  
     9    6   21 1   
    10    7    8 ar  
    11    7   22 1   
    12    8    9 1   
    13    9   10 ar  
    14    9   15 ar  
    15   10   11 ar  
    16   10   23 1   
    17   11   12 1   
    18   11   18 ar  
    19   12   13 1   
    20   12   14 1   
    21   15   16 ar  
    22   15   24 1   
    23   16   17 1   
    24   16   18 ar  
    25   18   19 1   
    26   19   25 1   
@<TRIPOS>SUBSTRUCTURE
     1 FHI         1 TEMP              0 ****  ****    0 ROOT
