@<TRIPOS>MOLECULE
FHJ
   58    61     1     0     0
SMALL
bcc


@<TRIPOS>ATOM
      1 C13          0.0000     0.0000     0.0000 ca         1 FHJ      -0.049000
      2 C15         -0.0050     0.0080     2.3980 ca         1 FHJ      -0.049000
      3 C20          4.5000     2.4200     2.6360 c3         1 FHJ      -0.105700
      4 C21          5.1570     1.0050     2.6660 c3         1 FHJ       0.177000
      5 C22          5.9840     0.9760     3.9540 c2         1 FHJ      -0.151200
      6 C28          2.6200     4.1560     5.4280 c3         1 FHJ       0.265700
      7 C01          4.0540    -2.6440     2.3250 ca         1 FHJ      -0.100300
      8 C02          3.5810    -3.2430     3.4770 ca         1 FHJ      -0.090000
      9 C03          2.7070    -4.3100     3.3930 ca         1 FHJ      -0.098500
     10 C04          2.3080    -4.7810     2.1560 ca         1 FHJ      -0.089300
     11 C05          2.7810    -4.1820     1.0030 ca         1 FHJ      -0.098500
     12 C06          3.6550    -3.1150     1.0870 ca         1 FHJ      -0.090000
     13 C07          1.3550    -5.9450     2.0630 c3         1 FHJ       0.064200
     14 C08          5.0020    -1.4760     2.4160 c3         1 FHJ       0.014900
     15 C09          4.2020    -0.1730     2.4650 c3         1 FHJ       0.151500
     16 C11          2.0750     0.0000     1.2040 ca         1 FHJ       0.066600
     17 C12          1.3810     0.0000     0.0000 ca         1 FHJ      -0.192500
     18 C14         -0.6920     0.0060     1.1970 ca         1 FHJ      -0.164000
     19 C16          1.3770     0.0010     2.4040 ca         1 FHJ      -0.192500
     20 C18          6.8920     2.2980     2.3190 c3         1 FHJ       0.217300
     21 C19          5.7290     3.3360     2.3910 c3         1 FHJ      -0.115700
     22 C23          7.0310     1.7570     3.7440 c2         1 FHJ      -0.131200
     23 C25          3.8460     2.7390     3.9550 c          1 FHJ       0.692100
     24 C29          5.9280     4.2910     3.5390 c          1 FHJ       0.690100
     25 C32          5.6470     6.3950     4.6220 c3         1 FHJ       0.263700
     26 N10          3.4720    -0.0010     1.2060 nu         1 FHJ      -0.427600
     27 O24          6.2190     1.1680     1.6670 os         1 FHJ      -0.402600
     28 O26          3.8760     1.9340     4.8550 o          1 FHJ      -0.559000
     29 O27          3.2290     3.9180     4.1310 os         1 FHJ      -0.409900
     30 O30          6.5490     3.9410     4.5150 o          1 FHJ      -0.558000
     31 O31          5.4150     5.5300     3.4790 os         1 FHJ      -0.400900
     32 H1          -0.5420    -0.0010    -0.9380 ha         1 FHJ       0.097000
     33 H2          -0.5500     0.0100     3.3340 ha         1 FHJ       0.097000
     34 H3           3.7910     2.4990     1.8210 hc         1 FHJ       0.068700
     35 H4           6.1000     0.0500     4.5030 ha         1 FHJ       0.130000
     36 H6           3.3730     4.0720     6.2020 h1         1 FHJ       0.003367
     37 H7           1.8410     3.4240     5.6010 h1         1 FHJ       0.003367
     38 H8           2.1910     5.1510     5.4480 h1         1 FHJ       0.003367
     39 H9           3.8940    -2.8740     4.4460 ha         1 FHJ       0.105000
     40 H10          2.3370    -4.7790     4.2970 ha         1 FHJ       0.105000
     41 H11          2.4680    -4.5510     0.0340 ha         1 FHJ       0.105000
     42 H12          4.0260    -2.6460     0.1840 ha         1 FHJ       0.105000
     43 H13          0.8950    -6.1130     3.0300 hc         1 FHJ       0.006700
     44 H14          1.8990    -6.8330     1.7630 hc         1 FHJ       0.006700
     45 H15          0.5880    -5.7270     1.3310 hc         1 FHJ       0.006700
     46 H16          5.6000    -1.5660     3.3150 hc         1 FHJ       0.031200
     47 H17          5.6510    -1.4690     1.5490 hc         1 FHJ       0.031200
     48 H18          3.4980    -0.2120     3.2880 h1         1 FHJ       0.081700
     49 H19          1.9230    -0.0030    -0.9380 ha         1 FHJ       0.115000
     50 H20         -1.7750     0.0080     1.1950 ha         1 FHJ       0.102000
     51 H21          1.9150     0.0020     3.3440 ha         1 FHJ       0.115000
     52 H22          7.8060     2.6370     1.8460 h1         1 FHJ       0.061700
     53 H23          5.6310     3.8710     1.4540 hc         1 FHJ       0.057700
     54 H24          8.0050     1.4700     4.1220 ha         1 FHJ       0.123000
     55 H26          5.4510     5.8470     5.5360 h1         1 FHJ       0.002700
     56 H27          4.9860     7.2520     4.5660 h1         1 FHJ       0.002700
     57 H28          6.6770     6.7320     4.6170 h1         1 FHJ       0.002700
     58 H29          3.9740     0.1450     0.3530 hn         1 FHJ       0.300800
@<TRIPOS>BOND
     1     1    17 ar  
     2     1    18 ar  
     3     1    32 1   
     4     2    18 ar  
     5     2    19 ar  
     6     2    33 1   
     7     3     4 1   
     8     3    21 1   
     9     3    23 1   
    10     3    34 1   
    11     4     5 1   
    12     4    15 1   
    13     4    27 1   
    14     5    22 2   
    15     5    35 1   
    16     6    29 1   
    17     6    36 1   
    18     6    37 1   
    19     6    38 1   
    20     7     8 ar  
    21     7    12 ar  
    22     7    14 1   
    23     8     9 ar  
    24     8    39 1   
    25     9    10 ar  
    26     9    40 1   
    27    10    11 ar  
    28    10    13 1   
    29    11    12 ar  
    30    11    41 1   
    31    12    42 1   
    32    13    43 1   
    33    13    44 1   
    34    13    45 1   
    35    14    15 1   
    36    14    46 1   
    37    14    47 1   
    38    15    26 1   
    39    15    48 1   
    40    16    17 ar  
    41    16    19 ar  
    42    16    26 1   
    43    17    49 1   
    44    18    50 1   
    45    19    51 1   
    46    20    21 1   
    47    20    22 1   
    48    20    27 1   
    49    20    52 1   
    50    21    24 1   
    51    21    53 1   
    52    22    54 1   
    53    23    28 2   
    54    23    29 1   
    55    24    30 2   
    56    24    31 1   
    57    25    31 1   
    58    25    55 1   
    59    25    56 1   
    60    25    57 1   
    61    26    58 1   
@<TRIPOS>SUBSTRUCTURE
     1 FHJ         1 TEMP              0 ****  ****    0 ROOT
