@<TRIPOS>MOLECULE
molecule
   42    43     1     0     0
SMALL
bcc


@<TRIPOS>ATOM
      1 C17          0.0000     0.0000     0.0000 ca         1 FHM      -0.164000
      2 C18          1.3820     0.0000     0.0000 ca         1 FHM      -0.130000
      3 C19          2.0750     0.0000     1.1990 ca         1 FHM       0.101900
      4 F19          3.4250    -0.0000     1.1980 f          1 FHM      -0.139900
      5 C20          1.3840    -0.0000     2.3990 ca         1 FHM      -0.130000
      6 C21          0.0020     0.0040     2.4020 ca         1 FHM      -0.164000
      7 C16         -0.6930    -0.0000     1.2010 ca         1 FHM       0.103100
      8 O14         -2.0520    -0.0000     1.2030 os         1 FHM      -0.304900
      9 C13         -2.4650    -0.0010     2.5710 c3         1 FHM       0.114400
     10 C11         -3.9930    -0.0000     2.6440 c3         1 FHM       0.080800
     11 O11         -4.5000     1.1670     1.9940 oh         1 FHM      -0.600800
     12 C12         -4.5370    -1.2490     1.9460 c3         1 FHM      -0.123100
     13 C10         -4.4270    -0.0010     4.0870 c          1 FHM       0.678100
     14 O10         -3.6900    -0.4450     4.9410 o          1 FHM      -0.584100
     15 N9          -5.6340     0.4920     4.4270 ns         1 FHM      -0.465100
     16 C6          -6.0860     0.3880     5.7480 ca         1 FHM       0.095600
     17 C5          -6.8790     1.3890     6.2930 ca         1 FHM      -0.128000
     18 C1          -5.7360    -0.7130     6.5170 ca         1 FHM      -0.120000
     19 C2          -6.1820    -0.8140     7.8200 ca         1 FHM      -0.053000
     20 C3          -6.9770     0.1820     8.3590 ca         1 FHM      -0.138200
     21 N8          -7.4550     0.0710     9.7550 no         1 FHM       0.291200
     22 O2          -7.1480    -0.8960    10.4290 o          1 FHM      -0.191000
     23 O1          -8.1550     0.9470    10.2310 o          1 FHM      -0.191000
     24 C4          -7.3270     1.2800     7.5950 ca         1 FHM      -0.107300
     25 C7          -8.1930     2.3620     8.1860 c3         1 FHM       0.682200
     26 F2          -8.4090     3.3610     7.2290 f          1 FHM      -0.208967
     27 F3          -9.4220     1.8160     8.5750 f          1 FHM      -0.208967
     28 F1          -7.5540     2.9150     9.3000 f          1 FHM      -0.208967
     29 H17         -0.5420    -0.0020    -0.9380 ha         1 FHM       0.151000
     30 H18          1.9230     0.0000    -0.9380 ha         1 FHM       0.150000
     31 H20          1.9270     0.0010     3.3360 ha         1 FHM       0.150000
     32 H21         -0.5380     0.0040     3.3410 ha         1 FHM       0.151000
     33 H131        -2.0800     0.8830     3.0650 h1         1 FHM       0.068700
     34 H132        -2.0800    -0.8860     3.0640 h1         1 FHM       0.068700
     35 H11         -4.7830     0.9440     1.1230 ho         1 FHM       0.424000
     36 H121        -4.4010    -1.1530     0.8760 hc         1 FHM       0.059033
     37 H122        -5.5910    -1.3560     2.1690 hc         1 FHM       0.059033
     38 H123        -4.0020    -2.1220     2.3010 hc         1 FHM       0.059033
     39 HN9         -6.2060     0.9380     3.7370 hn         1 FHM       0.348500
     40 H5          -7.1530     2.2500     5.6950 ha         1 FHM       0.169000
     41 H1          -5.1140    -1.4940     6.0960 ha         1 FHM       0.178000
     42 H2          -5.9100    -1.6730     8.4210 ha         1 FHM       0.178000
@<TRIPOS>BOND
     1     1     2 ar
     2     1     7 ar
     3     1    29 1
     4     2     3 ar
     5     2    30 1
     6     3     4 1
     7     3     5 ar
     8     5     6 ar
     9     5    31 1
    10     6     7 ar
    11     6    32 1
    12     7     8 1
    13     8     9 1
    14     9    10 1
    15     9    33 1
    16     9    34 1
    17    10    11 1
    18    10    12 1
    19    10    13 1
    20    11    35 1
    21    12    36 1
    22    12    37 1
    23    12    38 1
    24    13    14 2
    25    13    15 1
    26    15    16 1
    27    15    39 1
    28    16    17 ar
    29    16    18 ar
    30    17    24 ar
    31    17    40 1
    32    18    19 ar
    33    18    41 1
    34    19    20 ar
    35    19    42 1
    36    20    21 1
    37    20    24 ar
    38    21    22 1
    39    21    23 1
    40    24    25 1
    41    25    26 1
    42    25    27 1
    43    25    28 1
@<TRIPOS>SUBSTRUCTURE
     1 FHM         1 TEMP              0 ****  ****    0 ROOT
