@<TRIPOS>MOLECULE
FHN
   29    29     1     0     0
SMALL
bcc


@<TRIPOS>ATOM
      1 O2          0.0450   -0.1650    0.1030 oh        1 FHN     -0.603300
      2 C2          1.4520   -0.0530    0.0670 c3        1 FHN      0.121600
      3 C3          2.0220    0.0360    1.4960 c3        1 FHN      0.063100
      4 O3          1.6600    1.3250    1.9580 oh        1 FHN     -0.592800
      5 C4          3.5570   -0.0660    1.4770 c3        1 FHN      0.121600
      6 O4          4.1340    1.0220    0.7750 oh        1 FHN     -0.603300
      7 C5          4.0130   -1.3500    0.7580 c3        1 FHN      0.086500
      8 C7          5.5610   -1.4170    0.7020 c3        1 FHN      0.121900
      9 O7          6.0590   -0.5710   -0.3030 oh        1 FHN     -0.607300
     10 N           3.4460   -1.4190   -0.6290 n4        1 FHN     -0.745000
     11 C1          1.9530   -1.3080   -0.6790 c3        1 FHN      0.086500
     12 C6          1.2620   -2.5880   -0.1570 c3        1 FHN      0.121900
     13 O6          1.8420   -3.7030   -0.7970 oh        1 FHN     -0.607300
     14 H2         -0.2920    0.6690    0.4660 ho        1 FHN      0.455000
     15 HA          1.7590    0.8740   -0.5000 h1        1 FHN      0.085700
     16 H3          1.5840   -0.7720    2.1420 h1        1 FHN      0.080700
     17 H1          1.6830   -1.1920   -1.7740 hx        1 FHN      0.119200
     18 HB          1.5830    1.2860    2.9210 ho        1 FHN      0.438000
     19 H4          3.9520   -0.0870    2.5320 h1        1 FHN      0.085700
     20 HC          3.7360    1.8370    1.1220 ho        1 FHN      0.455000
     21 H5          3.6260   -2.2420    1.3340 hx        1 FHN      0.119200
     22 H71C        5.9580   -1.1570    1.7170 h1        1 FHN      0.090200
     23 H72C        5.8940   -2.4520    0.4140 h1        1 FHN      0.090200
     24 HN1         3.7150   -2.3210   -1.0490 hn        1 FHN      0.475300
     25 HN2         3.8750   -0.6510   -1.1690 hn        1 FHN      0.475300
     26 H7          6.1130    0.3300    0.0510 ho        1 FHN      0.444000
     27 H61C        1.4390   -2.7160    0.9460 h1        1 FHN      0.090200
     28 H62C        0.1610   -2.4850   -0.3460 h1        1 FHN      0.090200
     29 H6          1.1860   -4.0940   -1.3900 ho        1 FHN      0.444000
@<TRIPOS>BOND
     1    1    2 1
     2    1   14 1
     3    2    3 1
     4    2   11 1
     5    2   15 1
     6    3    4 1
     7    3    5 1
     8    3   16 1
     9    4   18 1
    10    5    6 1
    11    5    7 1
    12    5   19 1
    13    6   20 1
    14    7    8 1
    15    7   10 1
    16    7   21 1
    17    8    9 1
    18    8   22 1
    19    8   23 1
    20    9   26 1
    21   10   11 1
    22   10   24 1
    23   10   25 1
    24   11   12 1
    25   11   17 1
    26   12   13 1
    27   12   27 1
    28   12   28 1
    29   13   29 1
@<TRIPOS>SUBSTRUCTURE
     1 FHN         1 TEMP              0 ****  ****    0 ROOT
