@<TRIPOS>MOLECULE
molecule
   45    44     1     0     0
SMALL
bcc


@<TRIPOS>ATOM
      1 C1           1.5070     0.0000     0.0000 c3         1 FHP       0.018100
      2 C2           0.0000     0.0000     0.0000 c2         1 FHP      -0.025200
      3 C3          -0.6550    -1.0470    -0.4360 c2         1 FHP      -0.248400
      4 C4          -2.1510    -0.9850    -0.5980 c3         1 FHP      -0.007200
      5 C5          -2.4910    -0.5030    -2.0100 c3         1 FHP      -0.056200
      6 C6          -3.9880    -0.4420    -2.1730 c2         1 FHP      -0.158200
      7 C7          -4.5600     0.6710    -2.5590 c2         1 FHP      -0.168400
      8 C8          -6.0630     0.7670    -2.6080 c3         1 FHP      -0.028200
      9 C9          -6.5860     1.2670    -1.2600 c3         1 FHP      -0.050200
     10 C10         -8.0890     1.3640    -1.3090 c2         1 FHP      -0.163200
     11 C11         -8.8150     0.7440    -0.4140 c2         1 FHP      -0.158400
     12 C12        -10.3170     0.7430    -0.5300 c3         1 FHP      -0.046900
     13 C13         -8.1480     0.0290     0.7330 c3         1 FHP      -0.046900
     14 C14         -3.7150     1.8540    -2.9540 c3         1 FHP      -0.047900
     15 C15          0.0890    -2.3130    -0.7750 c3         1 FHP      -0.022900
     16 O1           1.9830     0.0000     1.3470 oh         1 FHP      -0.605800
     17 O1A          1.6200     2.6960    -0.1600 o          1 FHP      -0.903167
     18 O2A          3.7250     1.4890    -0.8570 o          1 FHP      -0.903167
     19 O3A          1.5780     1.4900    -2.3750 o          1 FHP      -0.903167
     20 PA           2.1150     1.4880    -0.8570 p5         1 FHP       1.025700
     21 H1           1.8680    -0.8840    -0.5110 h1         1 FHP       0.011700
     22 H2          -0.5370     0.9090     0.2430 ha         1 FHP       0.134000
     23 H41         -2.5650    -0.2970     0.1280 hc         1 FHP       0.015700
     24 H42         -2.5730    -1.9710    -0.4420 hc         1 FHP       0.015700
     25 H51         -2.0700     0.4820    -2.1660 hc         1 FHP       0.072200
     26 H52         -2.0760    -1.1920    -2.7360 hc         1 FHP       0.072200
     27 H6          -4.5970    -1.2920    -1.8900 ha         1 FHP       0.097000
     28 H81         -6.4810    -0.2100    -2.8170 hc         1 FHP       0.031700
     29 H82         -6.3550     1.4600    -3.3880 hc         1 FHP       0.031700
     30 H91         -6.2930     0.5750    -0.4800 hc         1 FHP       0.058200
     31 H92         -6.1680     2.2450    -1.0510 hc         1 FHP       0.058200
     32 H10         -8.5700     1.8770    -2.1330 ha         1 FHP       0.114000
     33 H121       -10.7500     0.3590     0.3850 hc         1 FHP       0.035700
     34 H122       -10.6140     0.1140    -1.3620 hc         1 FHP       0.035700
     35 H123       -10.6670     1.7540    -0.6990 hc         1 FHP       0.035700
     36 H131        -7.6040    -0.8290     0.3570 hc         1 FHP       0.035700
     37 H132        -7.4610     0.7030     1.2290 hc         1 FHP       0.035700
     38 H133        -8.9010    -0.3030     1.4380 hc         1 FHP       0.035700
     39 H141        -3.2060     2.2420    -2.0800 hc         1 FHP       0.048033
     40 H142        -2.9830     1.5440    -3.6900 hc         1 FHP       0.048033
     41 H143        -4.3480     2.6250    -3.3760 hc         1 FHP       0.048033
     42 H151         0.6910    -2.6160     0.0730 hc         1 FHP       0.019367
     43 H152         0.7310    -2.1360    -1.6290 hc         1 FHP       0.019367
     44 H153        -0.6210    -3.0960    -1.0130 hc         1 FHP       0.019367
     45 HO1          2.7810    -0.5000     1.3990 ho         1 FHP       0.372000
@<TRIPOS>BOND
     1     1     2 1
     2     1    16 1
     3     1    20 1
     4     1    21 1
     5     2     3 2
     6     2    22 1
     7     3     4 1
     8     3    15 1
     9     4     5 1
    10     4    23 1
    11     4    24 1
    12     5     6 1
    13     5    25 1
    14     5    26 1
    15     6     7 2
    16     6    27 1
    17     7     8 1
    18     7    14 1
    19     8     9 1
    20     8    28 1
    21     8    29 1
    22     9    10 1
    23     9    30 1
    24     9    31 1
    25    10    11 2
    26    10    32 1
    27    11    12 1
    28    11    13 1
    29    12    33 1
    30    12    34 1
    31    12    35 1
    32    13    36 1
    33    13    37 1
    34    13    38 1
    35    14    39 1
    36    14    40 1
    37    14    41 1
    38    15    42 1
    39    15    43 1
    40    15    44 1
    41    16    45 1
    42    17    20 1
    43    18    20 1
    44    19    20 1
@<TRIPOS>SUBSTRUCTURE
     1 FHP         1 TEMP              0 ****  ****    0 ROOT
