@<TRIPOS>MOLECULE
FHP
   45    44     1     0     0
SMALL
bcc


@<TRIPOS>ATOM
      1 C1          0.9090    0.0310    0.3250 c3        1 FHP     -0.032900
      2 C2         -0.2910   -0.6830   -0.0990 c2        1 FHP     -0.000200
      3 C3         -0.4030   -1.7540   -0.9140 c2        1 FHP     -0.287400
      4 C4         -1.7390   -2.0830   -1.4940 c3        1 FHP      0.012800
      5 C5         -2.1610   -1.0040   -2.4850 c3        1 FHP     -0.098200
      6 C6         -3.6250   -0.7910   -2.4970 c2        1 FHP     -0.145200
      7 C7         -4.2180    0.4140   -2.5500 c2        1 FHP     -0.143400
      8 C8         -5.7070    0.5280   -2.5440 c3        1 FHP     -0.027200
      9 C9         -6.2210    0.9270   -1.1720 c3        1 FHP     -0.059200
     10 C10        -7.6930    1.0820   -1.1400 c2        1 FHP     -0.141200
     11 C11        -8.3880    1.3460   -0.0210 c2        1 FHP     -0.167400
     12 C12        -9.8620    1.4990   -0.0310 c3        1 FHP     -0.047900
     13 C13        -7.7260    1.5020    1.2960 c3        1 FHP     -0.047900
     14 C14        -3.4680    1.6900   -2.6200 c3        1 FHP     -0.094900
     15 C15         0.7300   -2.5710   -1.3880 c3        1 FHP      0.000100
     16 O1          0.9900    0.1590    1.7260 oh        1 FHP     -0.662800
     17 O1A        -0.5450    1.6260   -1.2700 o         1 FHP     -0.928167
     18 O2A         0.5050    2.5700    0.8320 o         1 FHP     -0.928167
     19 O3A         1.9850    1.9480   -1.1590 o         1 FHP     -0.928167
     20 PA          0.6990    1.7350   -0.4130 p5        1 FHP      1.196700
     21 H1          1.8670   -0.4140   -0.0260 h1        1 FHP      0.043700
     22 H2         -1.2180   -0.1640    0.2200 ha        1 FHP      0.118000
     23 H41        -1.7190   -3.0830   -2.0020 hc        1 FHP     -0.005300
     24 H42        -2.5000   -2.1530   -0.6700 hc        1 FHP     -0.005300
     25 H51        -1.8290   -1.2940   -3.5180 hc        1 FHP      0.096200
     26 H52        -1.6150   -0.0390   -2.2210 hc        1 FHP      0.096200
     27 H6         -4.2400   -1.7050   -2.4390 ha        1 FHP      0.073000
     28 H81        -6.0250    1.2970   -3.2980 hc        1 FHP      0.018200
     29 H82        -6.1810   -0.4450   -2.8440 hc        1 FHP      0.018200
     30 H91        -5.7330    1.8930   -0.8610 hc        1 FHP      0.068200
     31 H92        -5.9040    0.1570   -0.4170 hc        1 FHP      0.068200
     32 H10        -8.2130    0.9710   -2.1060 ha        1 FHP      0.107000
     33 H121      -10.2870    1.3420   -1.0520 hc        1 FHP      0.032367
     34 H122      -10.1460    2.5250    0.3150 hc        1 FHP      0.032367
     35 H123      -10.3320    0.7570    0.6630 hc        1 FHP      0.032367
     36 H131       -6.9010    2.2570    1.2310 hc        1 FHP      0.032367
     37 H132       -7.2690    0.5300    1.6150 hc        1 FHP      0.032367
     38 H133       -8.4490    1.8290    2.0810 hc        1 FHP      0.032367
     39 H141       -2.5490    1.6830   -1.9510 hc        1 FHP      0.067700
     40 H142       -3.1100    1.8620   -3.6650 hc        1 FHP      0.067700
     41 H143       -4.1160    2.5510   -2.3260 hc        1 FHP      0.067700
     42 H151        0.5100   -3.6630   -1.2620 hc        1 FHP      0.003033
     43 H152        0.9260   -2.3880   -2.4750 hc        1 FHP      0.003033
     44 H153        1.6640   -2.3340   -0.8210 hc        1 FHP      0.003033
     45 HO1         0.7550    1.0830    1.9460 ho        1 FHP      0.429000
@<TRIPOS>BOND
     1    1    2 1   
     2    1   16 1   
     3    1   20 1   
     4    1   21 1   
     5    2    3 2   
     6    2   22 1   
     7    3    4 1   
     8    3   15 1   
     9    4    5 1   
    10    4   23 1   
    11    4   24 1   
    12    5    6 1   
    13    5   25 1   
    14    5   26 1   
    15    6    7 2   
    16    6   27 1   
    17    7    8 1   
    18    7   14 1   
    19    8    9 1   
    20    8   28 1   
    21    8   29 1   
    22    9   10 1   
    23    9   30 1   
    24    9   31 1   
    25   10   11 2   
    26   10   32 1   
    27   11   12 1   
    28   11   13 1   
    29   12   33 1   
    30   12   34 1   
    31   12   35 1   
    32   13   36 1   
    33   13   37 1   
    34   13   38 1   
    35   14   39 1   
    36   14   40 1   
    37   14   41 1   
    38   15   42 1   
    39   15   43 1   
    40   15   44 1   
    41   16   45 1   
    42   17   20 1   
    43   18   20 1   
    44   19   20 1   
@<TRIPOS>SUBSTRUCTURE
     1 FHP         1 TEMP              0 ****  ****    0 ROOT
