@<TRIPOS>MOLECULE
FHV
   31    32     1     0     0
SMALL
bcc


@<TRIPOS>ATOM
      1 C01          0.0000     0.0000     0.0000 c3         1 FHV       0.065200
      2 C02          1.5070     0.0000     0.0000 ca         1 FHV      -0.072300
      3 C03          2.1980     0.0000     1.1970 ca         1 FHV      -0.121000
      4 C04          3.5800    -0.0000     1.2020 ca         1 FHV      -0.077000
      5 C05          4.2760    -0.0010     0.0080 ca         1 FHV      -0.110000
      6 C06          3.5850    -0.0020    -1.1960 ca         1 FHV      -0.065400
      7 N07          4.2870    -0.0040    -2.4070 ns         1 FHV      -0.060100
      8 C08          5.4690    -0.6450    -2.5010 c          1 FHV       0.600100
      9 O09          5.8790    -1.3020    -1.5640 o          1 FHV      -0.691100
     10 N10          6.1960    -0.5570    -3.6320 n          1 FHV      -0.189800
     11 C11          7.4960    -1.2020    -3.8680 c3         1 FHV       0.061000
     12 C12          7.9570    -0.8000    -5.2850 c3         1 FHV      -0.032900
     13 C13          7.1600     0.5030    -5.5520 c3         1 FHV      -0.032900
     14 C14          5.8160     0.1960    -4.8420 c3         1 FHV       0.061000
     15 C15          2.1960    -0.0070    -1.1970 ca         1 FHV      -0.143000
     16 H011        -0.3610     0.7690    -0.6720 hc         1 FHV       0.005700
     17 H012        -0.3610     0.1980     1.0020 hc         1 FHV       0.005700
     18 H013        -0.3610    -0.9670    -0.3300 hc         1 FHV       0.005700
     19 H03          1.6540     0.0010     2.1350 ha         1 FHV       0.105000
     20 H15          1.6540    -0.0080    -2.1350 ha         1 FHV       0.105000
     21 H04          4.1190    -0.0000     2.1420 ha         1 FHV       0.102000
     22 H05          5.3600    -0.0020     0.0110 ha         1 FHV       0.142000
     23 H07          3.9030     0.4570    -3.2080 hn         1 FHV       0.164500
     24 H111         8.2150    -0.8570    -3.1360 h1         1 FHV       0.018200
     25 H112         7.3880    -2.2780    -3.8080 h1         1 FHV       0.018200
     26 H141         5.1840    -0.4100    -5.4790 h1         1 FHV       0.018200
     27 H142         5.3150     1.1170    -4.5690 h1         1 FHV       0.018200
     28 H121         9.0220    -0.6050    -5.2980 hc         1 FHV       0.024950
     29 H122         7.6900    -1.5650    -6.0040 hc         1 FHV       0.024950
     30 H131         7.6510     1.3550    -5.0980 hc         1 FHV       0.024950
     31 H132         7.0100     0.6520    -6.6140 hc         1 FHV       0.024950
@<TRIPOS>BOND
     1     1     2 1   
     2     1    16 1   
     3     1    17 1   
     4     1    18 1   
     5     2     3 ar  
     6     2    15 ar  
     7     3     4 ar  
     8     3    19 1   
     9     4     5 ar  
    10     4    21 1   
    11     5     6 ar  
    12     5    22 1   
    13     6     7 1   
    14     6    15 ar  
    15     7     8 1   
    16     7    23 1   
    17     8     9 2   
    18     8    10 1   
    19    10    11 1   
    20    10    14 1   
    21    11    12 1   
    22    11    24 1   
    23    11    25 1   
    24    12    13 1   
    25    12    28 1   
    26    12    29 1   
    27    13    14 1   
    28    13    30 1   
    29    13    31 1   
    30    14    26 1   
    31    14    27 1   
    32    15    20 1   
@<TRIPOS>SUBSTRUCTURE
     1 FHV         1 TEMP              0 ****  ****    0 ROOT
