@<TRIPOS>MOLECULE
FI0
   45    45     1     0     0
SMALL
bcc


@<TRIPOS>ATOM
      1 N11          0.0000     0.0000     0.0000 n7         1 FI0      -0.580200
      2 C12          1.4700     0.0000     0.0000 c3         1 FI0       0.144800
      3 C13          1.9790     0.0000     1.4430 c3         1 FI0      -0.051700
      4 C14          1.5730    -1.3070     2.1270 c3         1 FI0      -0.003100
      5 C15          3.5040     0.1250     1.4440 c3         1 FI0      -0.023400
      6 C16         -0.5260     0.0000    -1.3720 c3         1 FI0       0.113800
      7 C17         -2.0560     0.0010    -1.3310 c3         1 FI0       0.181100
      8 C18          4.0040     0.2500     2.8840 c3         1 FI0       0.003900
      9 O18         -2.5160     1.2230    -0.7490 oh         1 FI0      -0.553800
     10 C19         -2.6040    -0.1240    -2.7530 c3         1 FI0      -0.093500
     11 N20         -2.1310    -1.3810    -3.3510 nz         1 FI0       0.047400
     12 C32         -4.1330    -0.1230    -2.7130 c3         1 FI0       0.033900
     13 C33         -4.9220    -1.3210    -4.7640 ca         1 FI0      -0.104000
     14 C34         -5.4170    -1.3210    -6.0560 ca         1 FI0      -0.073000
     15 C35         -5.6630    -0.1240    -6.7020 ca         1 FI0      -0.064000
     16 C36         -5.4160     1.0730    -6.0560 ca         1 FI0      -0.073000
     17 C37         -4.9190     1.0730    -4.7660 ca         1 FI0      -0.104000
     18 C38         -4.6730    -0.1240    -4.1200 ca         1 FI0      -0.173300
     19 H12          1.8310     0.8850    -0.5110 h1         1 FI0       0.012200
     20 H12A         1.8310    -0.8850    -0.5110 h1         1 FI0       0.012200
     21 H13          1.5480     0.8370     1.9780 hc         1 FI0       0.032700
     22 H14          1.1240    -1.0870     3.0880 hc         1 FI0       0.010367
     23 H14A         2.4500    -1.9270     2.2710 hc         1 FI0       0.010367
     24 H14B         0.8570    -1.8320     1.5070 hc         1 FI0       0.010367
     25 H15          3.9390    -0.7550     0.9860 hc         1 FI0       0.015200
     26 H15A         3.7950     1.0050     0.8830 hc         1 FI0       0.015200
     27 H16         -0.1790    -0.8850    -1.8920 h1         1 FI0       0.009200
     28 H16A        -0.1780     0.8840    -1.8920 h1         1 FI0       0.009200
     29 H17         -2.4020    -0.8350    -0.7360 h1         1 FI0       0.028700
     30 H18          4.1410    -0.7380     3.3060 hc         1 FI0       0.007367
     31 H18A         4.9480     0.7810     2.8940 hc         1 FI0       0.007367
     32 H18B         3.2760     0.7960     3.4730 hc         1 FI0       0.007367
     33 HO18        -2.9590     1.0380     0.0620 ho         1 FI0       0.422000
     34 H19         -2.2570     0.7120    -3.3490 hx         1 FI0       0.104700
     35 HN20        -2.3680    -2.1460    -2.7510 hn         1 FI0       0.232467
     36 H32         -4.4800     0.7620    -2.1940 hc         1 FI0       0.055700
     37 H32A        -4.4810    -1.0070    -2.1920 hc         1 FI0       0.055700
     38 H35         -6.0520    -0.1240    -7.7130 ha         1 FI0       0.123000
     39 H36         -5.6080     2.0110    -6.5620 ha         1 FI0       0.121000
     40 H37         -4.7260     2.0120    -4.2600 ha         1 FI0       0.105500
     41 H2          -0.3340     0.8090     0.4850 hn         1 FI0       0.275800
     42 H1          -2.5650    -1.5100    -4.2440 hn         1 FI0       0.232467
     43 H33         -4.7290    -2.2590    -4.2580 ha         1 FI0       0.105500
     44 H203        -1.1430    -1.3280    -3.5010 hn         1 FI0       0.232467
     45 H34         -5.6110    -2.2600    -6.5610 ha         1 FI0       0.121000
@<TRIPOS>BOND
     1     1     2 1   
     2     1     6 1   
     3     1    41 1   
     4     2     3 1   
     5     2    19 1   
     6     2    20 1   
     7     3     4 1   
     8     3     5 1   
     9     3    21 1   
    10     4    22 1   
    11     4    23 1   
    12     4    24 1   
    13     5     8 1   
    14     5    25 1   
    15     5    26 1   
    16     6     7 1   
    17     6    27 1   
    18     6    28 1   
    19     7     9 1   
    20     7    10 1   
    21     7    29 1   
    22     8    30 1   
    23     8    31 1   
    24     8    32 1   
    25     9    33 1   
    26    10    11 1   
    27    10    12 1   
    28    10    34 1   
    29    11    35 1   
    30    11    42 1   
    31    11    44 1   
    32    12    18 1   
    33    12    36 1   
    34    12    37 1   
    35    13    14 ar  
    36    13    18 ar  
    37    13    43 1   
    38    14    15 ar  
    39    14    45 1   
    40    15    16 ar  
    41    15    38 1   
    42    16    17 ar  
    43    16    39 1   
    44    17    18 ar  
    45    17    40 1   
@<TRIPOS>SUBSTRUCTURE
     1 FI0         1 TEMP              0 ****  ****    0 ROOT
