@<TRIPOS>MOLECULE
molecule
   68    73     1     0     0
SMALL
bcc


@<TRIPOS>ATOM
      1 C1           0.0000     0.0000     0.0000 ca         1 FI1      -0.133000
      2 C2          -0.6600     0.0010     3.6580 ca         1 FI1      -0.082000
      3 C3           1.3610     0.0000     0.0000 ca         1 FI1      -0.031000
      4 C4          -2.0210     0.0010     3.6590 ca         1 FI1      -0.140000
      5 C5           1.4400     0.0010     2.3960 ca         1 FI1       0.025000
      6 C6          -2.0990    -0.0000     1.2620 ca         1 FI1      -0.128000
      7 C7           0.0340     0.0010     2.4370 ca         1 FI1      -0.057000
      8 C8          -0.6950     0.0000     1.2220 ca         1 FI1       0.015000
      9 C9           2.0780     0.0000     1.1950 ca         1 FI1      -0.279500
     10 C10         -2.7400    -0.0000     2.4650 ca         1 FI1       0.046400
     11 C11          1.3180     9.6420     2.8150 cc         1 FI1      -0.043000
     12 C12          1.7010     9.4950     4.1160 cd         1 FI1      -0.273200
     13 C13          0.1550     8.9990     2.3780 cc         1 FI1      -0.271000
     14 C14         -0.5980     8.2680     3.2420 cd         1 FI1       0.076400
     15 C15          0.9090     8.7250     4.9790 c          1 FI1       0.680700
     16 C16          2.7940     3.2050     2.0640 c          1 FI1       0.685500
     17 C17          0.4950     4.9710     3.3780 c          1 FI1       0.652100
     18 C18          4.8190     4.4710     3.5100 c3         1 FI1      -0.096400
     19 C19          5.2330     3.4130     2.4820 c3         1 FI1      -0.091400
     20 C20         -2.8490     7.3520     3.7700 c3         1 FI1      -0.077400
     21 C21          3.7110     5.3360     2.9040 c3         1 FI1       0.107000
     22 C22         -1.3200     6.1460     2.2220 c3         1 FI1       0.109000
     23 C23         -1.1430     7.6200     5.5690 c3         1 FI1       0.097000
     24 C24         -1.5930     5.3370     4.6010 c3         1 FI1       0.112000
     25 C25         -1.7930     7.5370     2.6770 c3         1 FI1      -0.053500
     26 C26          4.0660     2.4400     2.2920 c3         1 FI1       0.184500
     27 C27         -2.1840     6.6890     4.9770 c3         1 FI1      -0.106700
     28 N29         -0.2640     8.1970     4.5510 n          1 FI1      -0.299000
     29 N30          2.6490     4.4970     2.3640 n          1 FI1      -0.455800
     30 N31         -0.7580     5.4660     3.4000 n          1 FI1      -0.494800
     31 N32          4.3300     1.5810     1.1360 n7         1 FI1      -0.894100
     32 O34          1.8520     2.6200     1.5760 o          1 FI1      -0.652500
     33 O35          0.9440     4.4120     4.3560 o          1 FI1      -0.594100
     34 O36          4.2740    -0.5450     2.3880 o          1 FI1      -0.639800
     35 O37          4.2080    -0.5460    -0.1100 o          1 FI1      -0.639800
     36 S38          3.8400    -0.0010     1.1490 sy         1 FI1       1.425200
     37 Cl39        -4.4750    -0.0010     2.5100 cl         1 FI1      -0.115400
     38 H1          -0.5450    -0.0000    -0.9360 ha         1 FI1       0.135000
     39 H2          -0.1150     0.0020     4.5950 ha         1 FI1       0.144000
     40 H3           1.8940    -0.0010    -0.9430 ha         1 FI1       0.145000
     41 H4          -2.5530     0.0010     4.6030 ha         1 FI1       0.142000
     42 H5           2.0110     0.0010     3.3160 ha         1 FI1       0.148000
     43 H6          -2.6700    -0.0010     0.3410 ha         1 FI1       0.146000
     44 H11          1.9130    10.2320     2.1280 ha         1 FI1       0.136000
     45 H12          2.5970     9.9820     4.4820 ha         1 FI1       0.164000
     46 H13         -0.1620     9.1060     1.3470 ha         1 FI1       0.142000
     47 H18          5.6720     5.0930     3.7530 hc         1 FI1       0.065200
     48 H18A         4.4500     3.9840     4.4040 hc         1 FI1       0.065200
     49 H19          5.4630     3.8930     1.5380 hc         1 FI1       0.057200
     50 H19A         6.1000     2.8740     2.8440 hc         1 FI1       0.057200
     51 H20         -3.2490     8.3170     4.0580 hc         1 FI1       0.057700
     52 H20A        -3.6490     6.7210     3.4010 hc         1 FI1       0.057700
     53 H21          4.1270     5.9410     2.1070 h1         1 FI1       0.050200
     54 H21A         3.3020     5.9800     3.6720 h1         1 FI1       0.050200
     55 H22         -0.5570     6.2490     1.4600 h1         1 FI1       0.060200
     56 H22A        -2.1590     5.5800     1.8370 h1         1 FI1       0.060200
     57 H23         -1.6490     8.4250     6.0890 h1         1 FI1       0.077200
     58 H23A        -0.5400     7.0640     6.2770 h1         1 FI1       0.077200
     59 H24         -0.9870     4.9710     5.4210 h1         1 FI1       0.070200
     60 H24A        -2.3970     4.6380     4.4040 h1         1 FI1       0.070200
     61 H25         -2.2090     8.0850     1.8400 hc         1 FI1       0.080700
     62 H26          3.9620     1.8310     3.1810 h1         1 FI1       0.102700
     63 H27         -2.9470     6.5220     5.7270 hc         1 FI1       0.071700
     64 HN32         4.8270     1.9440     0.3460 hn         1 FI1       0.457800
     65 C28          1.3380     5.1110     2.1360 c3         1 FI1       0.028000
     66 O33          1.2780     8.5270     6.1250 o          1 FI1      -0.652500
     67 H28          1.4670     6.1610     1.9040 h1         1 FI1       0.082200
     68 H28A         0.8460     4.6150     1.3080 h1         1 FI1       0.082200
@<TRIPOS>BOND
     1     1     3 ar
     2     1     8 ar
     3     2     4 ar
     4     2     7 ar
     5     3     9 ar
     6     4    10 ar
     7     5     7 ar
     8     5     9 ar
     9     6     8 ar
    10     6    10 ar
    11     7     8 ar
    12     9    36 1
    13    10    37 1
    14    11    12 2
    15    11    13 1
    16    12    15 1
    17    13    14 2
    18    14    25 1
    19    14    28 1
    20    15    28 1
    21    15    66 2
    22    16    26 1
    23    16    29 1
    24    16    32 2
    25    17    65 1
    26    17    30 1
    27    17    33 2
    28    18    19 1
    29    18    21 1
    30    19    26 1
    31    20    25 1
    32    20    27 1
    33    21    29 1
    34    22    25 1
    35    22    30 1
    36    23    27 1
    37    23    28 1
    38    24    27 1
    39    24    30 1
    40    26    31 1
    41    65    29 1
    42    31    36 1
    43    34    36 2
    44    35    36 2
    45     1    38 1
    46     2    39 1
    47     3    40 1
    48     4    41 1
    49     5    42 1
    50     6    43 1
    51    11    44 1
    52    12    45 1
    53    13    46 1
    54    18    47 1
    55    18    48 1
    56    19    49 1
    57    19    50 1
    58    20    51 1
    59    20    52 1
    60    21    53 1
    61    21    54 1
    62    22    55 1
    63    22    56 1
    64    23    57 1
    65    23    58 1
    66    24    59 1
    67    24    60 1
    68    25    61 1
    69    26    62 1
    70    27    63 1
    71    65    67 1
    72    65    68 1
    73    31    64 1
@<TRIPOS>SUBSTRUCTURE
     1 FI1         1 TEMP              0 ****  ****    0 ROOT
