@<TRIPOS>MOLECULE
FI1
   68    73     1     0     0
SMALL
bcc


@<TRIPOS>ATOM
      1 C1           0.0000     0.0000     0.0000 ca         1 FI1      -0.118000
      2 C2          -0.6600     0.0010     3.6580 ca         1 FI1      -0.048000
      3 C3           1.3610     0.0000     0.0000 ca         1 FI1       0.002000
      4 C4          -2.0210     0.0010     3.6590 ca         1 FI1      -0.122000
      5 C5           1.4400     0.0010     2.3960 ca         1 FI1       0.059000
      6 C6          -2.0990    -0.0000     1.2620 ca         1 FI1      -0.106000
      7 C7           0.0340     0.0010     2.4370 ca         1 FI1      -0.067000
      8 C8          -0.6950     0.0000     1.2220 ca         1 FI1       0.015000
      9 C9           2.0780     0.0000     1.1950 ca         1 FI1      -0.122500
     10 C10         -2.7400    -0.0000     2.4650 ca         1 FI1      -0.015600
     11 C11          1.3180     9.6420     2.8150 cc         1 FI1      -0.018000
     12 C12          1.7010     9.4950     4.1160 cd         1 FI1      -0.248200
     13 C13          0.1550     8.9990     2.3780 cc         1 FI1      -0.236000
     14 C14         -0.5980     8.2680     3.2420 cd         1 FI1      -0.106600
     15 C15          0.9090     8.7250     4.9790 c          1 FI1       0.578700
     16 C16          2.7940     3.2050     2.0640 c          1 FI1       0.604500
     17 C17          0.4950     4.9710     3.3780 c          1 FI1       0.579100
     18 C18          4.8190     4.4710     3.5100 c3         1 FI1      -0.032400
     19 C19          5.2330     3.4130     2.4820 c3         1 FI1      -0.040400
     20 C20         -2.8490     7.3520     3.7700 c3         1 FI1      -0.026400
     21 C21          3.7110     5.3360     2.9040 c3         1 FI1       0.050000
     22 C22         -1.3200     6.1460     2.2220 c3         1 FI1       0.049000
     23 C23         -1.1430     7.6200     5.5690 c3         1 FI1       0.010000
     24 C24         -1.5930     5.3370     4.6010 c3         1 FI1       0.054000
     25 C25         -1.7930     7.5370     2.6770 c3         1 FI1      -0.007500
     26 C26          4.0660     2.4400     2.2920 c3         1 FI1       0.140500
     27 C27         -2.1840     6.6890     4.9770 c3         1 FI1      -0.075700
     28 N29         -0.2640     8.1970     4.5510 n          1 FI1       0.148000
     29 N30          2.6490     4.4970     2.3640 n          1 FI1      -0.094800
     30 N31         -0.7580     5.4660     3.4000 n          1 FI1      -0.161800
     31 N32          4.3300     1.5810     1.1360 n7         1 FI1      -0.556100
     32 O34          1.8520     2.6200     1.5760 o          1 FI1      -0.705500
     33 O35          0.9440     4.4120     4.3560 o          1 FI1      -0.636100
     34 O36          4.2740    -0.5450     2.3880 o          1 FI1      -0.591800
     35 O37          4.2080    -0.5460    -0.1100 o          1 FI1      -0.591800
     36 S38          3.8400    -0.0010     1.1490 sy         1 FI1       1.042200
     37 Cl39        -4.4750    -0.0010     2.5100 cl         1 FI1      -0.037400
     38 H1          -0.5450    -0.0000    -0.9360 ha         1 FI1       0.108000
     39 H2          -0.1150     0.0020     4.5950 ha         1 FI1       0.112000
     40 H3           1.8940    -0.0010    -0.9430 ha         1 FI1       0.117000
     41 H4          -2.5530     0.0010     4.6030 ha         1 FI1       0.113000
     42 H5           2.0110     0.0010     3.3160 ha         1 FI1       0.120000
     43 H6          -2.6700    -0.0010     0.3410 ha         1 FI1       0.118000
     44 H11          1.9130    10.2320     2.1280 ha         1 FI1       0.106000
     45 H12          2.5970     9.9820     4.4820 ha         1 FI1       0.138000
     46 H13         -0.1620     9.1060     1.3470 ha         1 FI1       0.124000
     47 H18          5.6720     5.0930     3.7530 hc         1 FI1       0.032700
     48 H18A         4.4500     3.9840     4.4040 hc         1 FI1       0.032700
     49 H19          5.4630     3.8930     1.5380 hc         1 FI1       0.027200
     50 H19A         6.1000     2.8740     2.8440 hc         1 FI1       0.027200
     51 H20         -3.2490     8.3170     4.0580 hc         1 FI1       0.029700
     52 H20A        -3.6490     6.7210     3.4010 hc         1 FI1       0.029700
     53 H21          4.1270     5.9410     2.1070 h1         1 FI1       0.021200
     54 H21A         3.3020     5.9800     3.6720 h1         1 FI1       0.021200
     55 H22         -0.5570     6.2490     1.4600 h1         1 FI1       0.035200
     56 H22A        -2.1590     5.5800     1.8370 h1         1 FI1       0.035200
     57 H23         -1.6490     8.4250     6.0890 h1         1 FI1       0.053200
     58 H23A        -0.5400     7.0640     6.2770 h1         1 FI1       0.053200
     59 H24         -0.9870     4.9710     5.4210 h1         1 FI1       0.044700
     60 H24A        -2.3970     4.6380     4.4040 h1         1 FI1       0.044700
     61 H25         -2.2090     8.0850     1.8400 hc         1 FI1       0.052700
     62 H26          3.9620     1.8310     3.1810 h1         1 FI1       0.070700
     63 H27         -2.9470     6.5220     5.7270 hc         1 FI1       0.045700
     64 HN32         4.8270     1.9440     0.3460 hn         1 FI1       0.347800
     65 C28          1.3380     5.1110     2.1360 c3         1 FI1      -0.041000
     66 O33          1.2780     8.5270     6.1250 o          1 FI1      -0.695500
     67 H28          1.4670     6.1610     1.9040 h1         1 FI1       0.054200
     68 H28A         0.8460     4.6150     1.3080 h1         1 FI1       0.054200
@<TRIPOS>BOND
     1     1     3 ar  
     2     1     8 ar  
     3     1    38 1   
     4     2     4 ar  
     5     2     7 ar  
     6     2    39 1   
     7     3     9 ar  
     8     3    40 1   
     9     4    10 ar  
    10     4    41 1   
    11     5     7 ar  
    12     5     9 ar  
    13     5    42 1   
    14     6     8 ar  
    15     6    10 ar  
    16     6    43 1   
    17     7     8 ar  
    18     9    36 1   
    19    10    37 1   
    20    11    12 2   
    21    11    13 1   
    22    11    44 1   
    23    12    15 1   
    24    12    45 1   
    25    13    14 2   
    26    13    46 1   
    27    14    25 1   
    28    14    28 1   
    29    15    28 1   
    30    15    66 2   
    31    16    26 1   
    32    16    29 1   
    33    16    32 2   
    34    17    30 1   
    35    17    33 2   
    36    17    65 1   
    37    18    19 1   
    38    18    21 1   
    39    18    47 1   
    40    18    48 1   
    41    19    26 1   
    42    19    49 1   
    43    19    50 1   
    44    20    25 1   
    45    20    27 1   
    46    20    51 1   
    47    20    52 1   
    48    21    29 1   
    49    21    53 1   
    50    21    54 1   
    51    22    25 1   
    52    22    30 1   
    53    22    55 1   
    54    22    56 1   
    55    23    27 1   
    56    23    28 1   
    57    23    57 1   
    58    23    58 1   
    59    24    27 1   
    60    24    30 1   
    61    24    59 1   
    62    24    60 1   
    63    25    61 1   
    64    26    31 1   
    65    26    62 1   
    66    27    63 1   
    67    29    65 1   
    68    31    36 1   
    69    31    64 1   
    70    34    36 2   
    71    35    36 2   
    72    65    67 1   
    73    65    68 1   
@<TRIPOS>SUBSTRUCTURE
     1 FI1         1 TEMP              0 ****  ****    0 ROOT
