@<TRIPOS>MOLECULE
molecule
   86    90     1     0     0
SMALL
bcc


@<TRIPOS>ATOM
      1 CAV          0.0000     0.0000     0.0000 c3         1 FI3      -0.077100
      2 CAW          1.5300     0.0000     0.0000 c3         1 FI3      -0.159400
      3 CBL          2.0320     0.0000     1.4200 c          1 FI3       0.658100
      4 OAF          1.2450     0.0010     2.3420 o          1 FI3      -0.588100
      5 NBF          3.3580     0.0000     1.6660 ns         1 FI3      -0.483100
      6 CBO          3.8260     0.0980     2.9810 ca         1 FI3       0.066600
      7 CAO          4.9900     0.8030     3.2550 ca         1 FI3      -0.142500
      8 CAM          5.4500     0.8970     4.5540 ca         1 FI3      -0.092500
      9 CAN          3.1230    -0.5050     4.0160 ca         1 FI3      -0.142500
     10 CAL          3.5870    -0.4080     5.3130 ca         1 FI3      -0.092500
     11 CBN          4.7500     0.2910     5.5820 ca         1 FI3      -0.145300
     12 CBC          5.2540     0.3960     6.9980 c3         1 FI3       0.147300
     13 NCB          4.6780     1.5820     7.6350 n          1 FI3      -0.456300
     14 CBM          5.3170     2.7660     7.5590 c          1 FI3       0.771100
     15 OAG          4.7960     3.7690     8.0060 o          1 FI3      -0.543100
     16 NBG          6.5360     2.8370     6.9870 ns         1 FI3      -0.492100
     17 CBX          7.2500     4.0420     7.0090 ca         1 FI3       0.151600
     18 CBU          8.5710     4.0580     7.4370 ca         1 FI3      -0.050100
     19 ClI          9.3390     2.5850     7.9410 cl         1 FI3      -0.066400
     20 CBT          6.6400     5.2190     6.6000 ca         1 FI3      -0.050100
     21 ClH          4.9900     5.2000     6.0590 cl         1 FI3      -0.066400
     22 CBV          7.3480     6.4120     6.6220 ca         1 FI3       0.200100
     23 OBI          6.7510     7.5650     6.2220 os         1 FI3      -0.307400
     24 CAA          7.5390     8.7560     6.2710 c3         1 FI3       0.127700
     25 CAU          8.6660     6.4290     7.0550 ca         1 FI3      -0.317000
     26 CBW          9.2780     5.2520     7.4580 ca         1 FI3       0.200100
     27 OBJ         10.5700     5.2680     7.8820 os         1 FI3      -0.307400
     28 CAB         11.2340     6.5340     7.8870 c3         1 FI3       0.127700
     29 C4           3.4700     1.4870     8.3180 ca         1 FI3       0.642200
     30 C5           2.9030     0.2450     8.5790 ca         1 FI3      -0.498600
     31 N3           2.8430     2.5850     8.7370 nb         1 FI3      -0.761000
     32 C2           1.6990     2.5040     9.3840 ca         1 FI3       0.743900
     33 N1           1.1260     1.3480     9.6470 nb         1 FI3      -0.822000
     34 C6           1.6920     0.2040     9.2660 ca         1 FI3       0.743200
     35 NBH          1.0860    -1.0110     9.5510 nu         1 FI3      -0.767300
     36 CBP         -0.1890    -1.0380    10.1300 ca         1 FI3       0.129600
     37 CAQ         -1.1210    -0.0620     9.8030 ca         1 FI3      -0.120000
     38 CAS         -2.3780    -0.0890    10.3730 ca         1 FI3      -0.150000
     39 CAP         -0.5230    -2.0440    11.0270 ca         1 FI3      -0.120000
     40 CAR         -1.7790    -2.0710    11.5980 ca         1 FI3      -0.150000
     41 CBR         -2.7100    -1.0920    11.2740 ca         1 FI3       0.086600
     42 NCA         -3.9840    -1.1190    11.8530 nh         1 FI3      -0.597000
     43 CAZ         -5.0310    -1.1490    10.8210 c3         1 FI3       0.165300
     44 CAX         -6.4050    -1.0990    11.4910 c3         1 FI3       0.160300
     45 NBZ         -6.5420    -2.2380    12.4090 n3         1 FI3      -0.733600
     46 CAC         -7.8800    -2.2660    13.0170 c3         1 FI3       0.152100
     47 CAY         -5.4970    -2.2070    13.4410 c3         1 FI3       0.160300
     48 CBA         -4.1210    -2.2580    12.7720 c3         1 FI3       0.165300
     49 H1          -0.3610     0.8520     0.5630 hc         1 FI3       0.046033
     50 H2          -0.3610    -0.9140     0.4570 hc         1 FI3       0.046033
     51 H3          -0.3610     0.0610    -1.0200 hc         1 FI3       0.046033
     52 H4           1.8910    -0.8840    -0.5110 hc         1 FI3       0.060200
     53 H5           1.8910     0.8840    -0.5110 hc         1 FI3       0.060200
     54 H6           4.0070    -0.0910     0.9090 hn         1 FI3       0.324500
     55 H7           5.5380     1.2780     2.4500 ha         1 FI3       0.151000
     56 H8           6.3590     1.4450     4.7690 ha         1 FI3       0.133500
     57 H9           2.2120    -1.0530     3.8060 ha         1 FI3       0.151000
     58 H10          3.0410    -0.8800     6.1210 ha         1 FI3       0.133500
     59 H11          6.3340     0.4780     6.9920 h1         1 FI3       0.062700
     60 H12          4.9630    -0.4890     7.5520 h1         1 FI3       0.062700
     61 H13          6.9790     2.0020     6.6580 hn         1 FI3       0.329500
     62 H14          8.4070     8.6420     5.6330 h1         1 FI3       0.044033
     63 H15          7.8610     8.9350     7.2900 h1         1 FI3       0.044033
     64 H16          6.9470     9.5960     5.9270 h1         1 FI3       0.044033
     65 H17          9.2190     7.3600     7.0720 ha         1 FI3       0.151000
     66 H18         10.7030     7.2180     8.5380 h1         1 FI3       0.044033
     67 H19         11.2540     6.9350     6.8800 h1         1 FI3       0.044033
     68 H20         12.2490     6.4080     8.2450 h1         1 FI3       0.044033
     69 H21          3.3900    -0.6670     8.2550 ha         1 FI3       0.138000
     70 H22          1.2130     3.4160     9.7090 h5         1 FI3       0.065100
     71 H23          1.5510    -1.8670     9.3250 hn         1 FI3       0.452800
     72 H24         -0.8620     0.7210     9.1000 ha         1 FI3       0.143500
     73 H25         -3.1040     0.6740    10.1200 ha         1 FI3       0.138000
     74 H26          0.2030    -2.8080    11.2790 ha         1 FI3       0.143500
     75 H27         -2.0390    -2.8550    12.2990 ha         1 FI3       0.138000
     76 H28         -4.9440    -2.0630    10.2460 h1         1 FI3       0.048700
     77 H29         -4.9170    -0.2930    10.1680 h1         1 FI3       0.048700
     78 H30         -7.1770    -1.1520    10.7330 h1         1 FI3       0.042200
     79 H31         -6.5010    -0.1740    12.0470 h1         1 FI3       0.042200
     80 H33         -7.9660    -3.1320    13.6620 h1         1 FI3       0.032367
     81 H34         -8.6300    -2.3220    12.2370 h1         1 FI3       0.032367
     82 H35         -8.0320    -1.3650    13.6000 h1         1 FI3       0.032367
     83 H36         -5.5840    -1.2930    14.0160 h1         1 FI3       0.042200
     84 H37         -5.6110    -3.0630    14.0960 h1         1 FI3       0.042200
     85 H38         -3.3490    -2.2040    13.5300 h1         1 FI3       0.048700
     86 H39         -4.0250    -3.1830    12.2150 h1         1 FI3       0.048700
@<TRIPOS>BOND
     1    28    27 1
     2    27    26 1
     3    24    23 1
     4    25    26 ar
     5    25    22 ar
     6    26    18 ar
     7    23    22 1
     8    22    20 ar
     9    18    19 1
    10    18    17 ar
    11    20    17 ar
    12    20    21 1
    13    17    16 1
    14    16    14 1
    15    15    14 2
    16    14    13 1
    17    31    32 ar
    18    31    29 ar
    19    13    29 1
    20    13    12 1
    21    32    33 ar
    22     8     7 ar
    23     8    11 ar
    24    29    30 ar
    25     7     6 ar
    26    12    11 1
    27    11    10 ar
    28    33    34 ar
    29    30    34 ar
    30     6     5 1
    31     6     9 ar
    32    34    35 1
    33     5     3 1
    34    10     9 ar
    35    35    36 1
    36     3     2 1
    37     3     4 2
    38     2     1 1
    39    37    36 ar
    40    37    38 ar
    41    36    39 ar
    42    38    41 ar
    43    39    40 ar
    44    41    40 ar
    45    41    42 1
    46    43    42 1
    47    43    44 1
    48    42    48 1
    49    44    45 1
    50    48    47 1
    51    45    47 1
    52    45    46 1
    53     1    49 1
    54     1    50 1
    55     1    51 1
    56     2    52 1
    57     2    53 1
    58     5    54 1
    59     7    55 1
    60     8    56 1
    61     9    57 1
    62    10    58 1
    63    12    59 1
    64    12    60 1
    65    16    61 1
    66    24    62 1
    67    24    63 1
    68    24    64 1
    69    25    65 1
    70    28    66 1
    71    28    67 1
    72    28    68 1
    73    30    69 1
    74    32    70 1
    75    35    71 1
    76    37    72 1
    77    38    73 1
    78    39    74 1
    79    40    75 1
    80    43    76 1
    81    43    77 1
    82    44    78 1
    83    44    79 1
    84    46    80 1
    85    46    81 1
    86    46    82 1
    87    47    83 1
    88    47    84 1
    89    48    85 1
    90    48    86 1
@<TRIPOS>SUBSTRUCTURE
     1 FI3         1 TEMP              0 ****  ****    0 ROOT
