@<TRIPOS>MOLECULE
FI3
   86    90     1     0     0
SMALL
bcc


@<TRIPOS>ATOM
      1 CAV          0.0000     0.0000     0.0000 c3         1 FI3       0.020900
      2 CAW          1.5300     0.0000     0.0000 c3         1 FI3      -0.098400
      3 CBL          2.0320     0.0000     1.4200 c          1 FI3       0.560100
      4 OAF          1.2450     0.0010     2.3420 o          1 FI3      -0.627100
      5 NBF          3.3580     0.0000     1.6660 ns         1 FI3      -0.043100
      6 CBO          3.8260     0.0980     2.9810 ca         1 FI3      -0.077400
      7 CAO          4.9900     0.8030     3.2550 ca         1 FI3      -0.114000
      8 CAM          5.4500     0.8970     4.5540 ca         1 FI3      -0.068500
      9 CAN          3.1230    -0.5050     4.0160 ca         1 FI3      -0.114000
     10 CAL          3.5870    -0.4080     5.3130 ca         1 FI3      -0.068500
     11 CBN          4.7500     0.2910     5.5820 ca         1 FI3      -0.150300
     12 CBC          5.2540     0.3960     6.9980 c3         1 FI3       0.078300
     13 NCB          4.6780     1.5820     7.6350 n          1 FI3      -0.074300
     14 CBM          5.3170     2.7660     7.5590 c          1 FI3       0.551100
     15 OAG          4.7960     3.7690     8.0060 o          1 FI3      -0.600100
     16 NBG          6.5360     2.8370     6.9870 ns         1 FI3      -0.086100
     17 CBX          7.2500     4.0420     7.0090 ca         1 FI3       0.009600
     18 CBU          8.5710     4.0580     7.4370 ca         1 FI3      -0.128600
     19 ClI          9.3390     2.5850     7.9410 cl         1 FI3       0.023600
     20 CBT          6.6400     5.2190     6.6000 ca         1 FI3      -0.128600
     21 ClH          4.9900     5.2000     6.0590 cl         1 FI3       0.023600
     22 CBV          7.3480     6.4120     6.6220 ca         1 FI3       0.211600
     23 OBI          6.7510     7.5650     6.2220 os         1 FI3      -0.294400
     24 CAA          7.5390     8.7560     6.2710 c3         1 FI3       0.244700
     25 CAU          8.6660     6.4290     7.0550 ca         1 FI3      -0.320000
     26 CBW          9.2780     5.2520     7.4580 ca         1 FI3       0.211600
     27 OBJ         10.5700     5.2680     7.8820 os         1 FI3      -0.294400
     28 CAB         11.2340     6.5340     7.8870 c3         1 FI3       0.244700
     29 C4           3.4700     1.4870     8.3180 ca         1 FI3       0.469200
     30 C5           2.9030     0.2450     8.5790 ca         1 FI3      -0.499600
     31 N3           2.8430     2.5850     8.7370 nb         1 FI3      -0.650000
     32 C2           1.6990     2.5040     9.3840 ca         1 FI3       0.696900
     33 N1           1.1260     1.3480     9.6470 nb         1 FI3      -0.720000
     34 C6           1.6920     0.2040     9.2660 ca         1 FI3       0.553200
     35 NBH          1.0860    -1.0110     9.5510 nu         1 FI3      -0.300300
     36 CBP         -0.1890    -1.0380    10.1300 ca         1 FI3      -0.027400
     37 CAQ         -1.1210    -0.0620     9.8030 ca         1 FI3      -0.092000
     38 CAS         -2.3780    -0.0890    10.3730 ca         1 FI3      -0.128500
     39 CAP         -0.5230    -2.0440    11.0270 ca         1 FI3      -0.092000
     40 CAR         -1.7790    -2.0710    11.5980 ca         1 FI3      -0.128500
     41 CBR         -2.7100    -1.0920    11.2740 ca         1 FI3       0.008600
     42 NCA         -3.9840    -1.1190    11.8530 nh         1 FI3      -0.363000
     43 CAZ         -5.0310    -1.1490    10.8210 c3         1 FI3       0.136300
     44 CAX         -6.4050    -1.0990    11.4910 c3         1 FI3       0.152800
     45 NBZ         -6.5420    -2.2380    12.4090 n3         1 FI3      -0.549600
     46 CAC         -7.8800    -2.2660    13.0170 c3         1 FI3       0.189100
     47 CAY         -5.4970    -2.2070    13.4410 c3         1 FI3       0.152800
     48 CBA         -4.1210    -2.2580    12.7720 c3         1 FI3       0.136300
     49 H1          -0.3610     0.8520     0.5630 hc         1 FI3       0.010700
     50 H2          -0.3610    -0.9140     0.4570 hc         1 FI3       0.010700
     51 H3          -0.3610     0.0610    -1.0200 hc         1 FI3       0.010700
     52 H4           1.8910    -0.8840    -0.5110 hc         1 FI3       0.025700
     53 H5           1.8910     0.8840    -0.5110 hc         1 FI3       0.025700
     54 H6           4.0070    -0.0910     0.9090 hn         1 FI3       0.168500
     55 H7           5.5380     1.2780     2.4500 ha         1 FI3       0.128000
     56 H8           6.3590     1.4450     4.7690 ha         1 FI3       0.108000
     57 H9           2.2120    -1.0530     3.8060 ha         1 FI3       0.128000
     58 H10          3.0410    -0.8800     6.1210 ha         1 FI3       0.108000
     59 H11          6.3340     0.4780     6.9920 h1         1 FI3       0.036700
     60 H12          4.9630    -0.4890     7.5520 h1         1 FI3       0.036700
     61 H13          6.9790     2.0020     6.6580 hn         1 FI3       0.183500
     62 H14          8.4070     8.6420     5.6330 h1         1 FI3      -0.001300
     63 H15          7.8610     8.9350     7.2900 h1         1 FI3      -0.001300
     64 H16          6.9470     9.5960     5.9270 h1         1 FI3      -0.001300
     65 H17          9.2190     7.3600     7.0720 ha         1 FI3       0.144000
     66 H18         10.7030     7.2180     8.5380 h1         1 FI3      -0.001300
     67 H19         11.2540     6.9350     6.8800 h1         1 FI3      -0.001300
     68 H20         12.2490     6.4080     8.2450 h1         1 FI3      -0.001300
     69 H21          3.3900    -0.6670     8.2550 ha         1 FI3       0.135000
     70 H22          1.2130     3.4160     9.7090 h5         1 FI3      -0.000900
     71 H23          1.5510    -1.8670     9.3250 hn         1 FI3       0.282800
     72 H24         -0.8620     0.7210     9.1000 ha         1 FI3       0.119000
     73 H25         -3.1040     0.6740    10.1200 ha         1 FI3       0.118000
     74 H26          0.2030    -2.8080    11.2790 ha         1 FI3       0.119000
     75 H27         -2.0390    -2.8550    12.2990 ha         1 FI3       0.118000
     76 H28         -4.9440    -2.0630    10.2460 h1         1 FI3       0.023700
     77 H29         -4.9170    -0.2930    10.1680 h1         1 FI3       0.023700
     78 H30         -7.1770    -1.1520    10.7330 h1         1 FI3       0.014450
     79 H31         -6.5010    -0.1740    12.0470 h1         1 FI3       0.014450
     80 H33         -7.9660    -3.1320    13.6620 h1         1 FI3       0.000367
     81 H34         -8.6300    -2.3220    12.2370 h1         1 FI3       0.000367
     82 H35         -8.0320    -1.3650    13.6000 h1         1 FI3       0.000367
     83 H36         -5.5840    -1.2930    14.0160 h1         1 FI3       0.014450
     84 H37         -5.6110    -3.0630    14.0960 h1         1 FI3       0.014450
     85 H38         -3.3490    -2.2040    13.5300 h1         1 FI3       0.023700
     86 H39         -4.0250    -3.1830    12.2150 h1         1 FI3       0.023700
@<TRIPOS>BOND
     1     1     2 1   
     2     1    49 1   
     3     1    50 1   
     4     1    51 1   
     5     2     3 1   
     6     2    52 1   
     7     2    53 1   
     8     3     4 2   
     9     3     5 1   
    10     5     6 1   
    11     5    54 1   
    12     6     7 ar  
    13     6     9 ar  
    14     7     8 ar  
    15     7    55 1   
    16     8    11 ar  
    17     8    56 1   
    18     9    10 ar  
    19     9    57 1   
    20    10    11 ar  
    21    10    58 1   
    22    11    12 1   
    23    12    13 1   
    24    12    59 1   
    25    12    60 1   
    26    13    14 1   
    27    13    29 1   
    28    14    15 2   
    29    14    16 1   
    30    16    17 1   
    31    16    61 1   
    32    17    18 ar  
    33    17    20 ar  
    34    18    19 1   
    35    18    26 ar  
    36    20    21 1   
    37    20    22 ar  
    38    22    23 1   
    39    22    25 ar  
    40    23    24 1   
    41    24    62 1   
    42    24    63 1   
    43    24    64 1   
    44    25    26 ar  
    45    25    65 1   
    46    26    27 1   
    47    27    28 1   
    48    28    66 1   
    49    28    67 1   
    50    28    68 1   
    51    29    30 ar  
    52    29    31 ar  
    53    30    34 ar  
    54    30    69 1   
    55    31    32 ar  
    56    32    33 ar  
    57    32    70 1   
    58    33    34 ar  
    59    34    35 1   
    60    35    36 1   
    61    35    71 1   
    62    36    37 ar  
    63    36    39 ar  
    64    37    38 ar  
    65    37    72 1   
    66    38    41 ar  
    67    38    73 1   
    68    39    40 ar  
    69    39    74 1   
    70    40    41 ar  
    71    40    75 1   
    72    41    42 1   
    73    42    43 1   
    74    42    48 1   
    75    43    44 1   
    76    43    76 1   
    77    43    77 1   
    78    44    45 1   
    79    44    78 1   
    80    44    79 1   
    81    45    46 1   
    82    45    47 1   
    83    46    80 1   
    84    46    81 1   
    85    46    82 1   
    86    47    48 1   
    87    47    83 1   
    88    47    84 1   
    89    48    85 1   
    90    48    86 1   
@<TRIPOS>SUBSTRUCTURE
     1 FI3         1 TEMP              0 ****  ****    0 ROOT
