@<TRIPOS>MOLECULE
FI4
   46    49     1     0     0
SMALL
bcc


@<TRIPOS>ATOM
      1 FAD          0.0000     0.0000     0.0000 f          1 FI4      -0.116900
      2 CAU          1.3510     0.0000     0.0000 ca         1 FI4       0.132900
      3 CAL          2.0440     0.0000     1.1960 ca         1 FI4      -0.161000
      4 CAT          3.4290    -0.0000     1.1940 ca         1 FI4       0.126900
      5 FAC          4.1050    -0.0000     2.3640 f          1 FI4      -0.123900
      6 CAH          4.1210     0.0000    -0.0040 ca         1 FI4      -0.136000
      7 CAK          3.4310    -0.0010    -1.2020 ca         1 FI4      -0.058000
      8 CAX          2.0460    -0.0050    -1.2040 ca         1 FI4       0.085100
      9 OAS          1.3660    -0.0110    -2.3820 os         1 FI4      -0.314400
     10 CAW          0.9780     1.1800    -2.8970 ca         1 FI4       0.906300
     11 NAP          1.2410     2.2810    -2.2190 nb         1 FI4      -0.775000
     12 NAO          0.3540     1.1950    -4.0680 nb         1 FI4      -0.754000
     13 CAZ         -0.0460     2.3360    -4.6160 ca         1 FI4       0.648200
     14 NAQ         -0.6960     2.3460    -5.8350 nu         1 FI4      -0.482900
     15 CAM         -0.8640     1.0990    -6.5860 c3         1 FI4       0.153800
     16 CBD         -1.6100     1.3850    -7.8900 c3         1 FI4       0.174100
     17 OAB         -0.8080     2.2230    -8.7240 oh         1 FI4      -0.597800
     18 CAA         -1.8960     0.0680    -8.6150 c3         1 FI4      -0.033100
     19 CBC          0.2070     3.5350    -3.9270 ca         1 FI4      -0.583500
     20 CBB          0.8760     3.4740    -2.6910 ca         1 FI4       0.366800
     21 NAR          0.9990     4.7550    -2.2430 na         1 FI4       0.342200
     22 NAN          0.4210     5.6290    -3.1690 nc         1 FI4      -0.640100
     23 CBA         -0.0630     4.9490    -4.1820 cd         1 FI4       0.491500
     24 CAY         -0.7480     5.5130    -5.3700 ca         1 FI4      -0.103900
     25 CAV         -1.8830     6.3090    -5.2110 ca         1 FI4      -0.016600
     26 ClAE        -2.4970     6.6420    -3.6220 cl         1 FI4       0.000600
     27 CAJ         -0.2570     5.2540    -6.6490 ca         1 FI4      -0.087000
     28 CAG         -0.8990     5.7810    -7.7510 ca         1 FI4      -0.098000
     29 CAF         -2.0280     6.5650    -7.5890 ca         1 FI4      -0.088000
     30 CAI         -2.5170     6.8300    -6.3220 ca         1 FI4      -0.102000
     31 HAL          1.5040    -0.0120     2.1350 ha         1 FI4       0.136000
     32 HAH          5.2040     0.0020    -0.0030 ha         1 FI4       0.124000
     33 HAK          3.9750    -0.0030    -2.1390 ha         1 FI4       0.121000
     34 HNAQ        -1.0960     3.1950    -6.1820 hn         1 FI4       0.321800
     35 HAM          0.1100     0.6800    -6.8110 h1         1 FI4       0.038700
     36 HAMA        -1.4320     0.3940    -5.9910 h1         1 FI4       0.038700
     37 HBD         -2.5460     1.8850    -7.6690 h1         1 FI4       0.006700
     38 HOAB        -1.1740     2.2450    -9.5930 ho         1 FI4       0.399000
     39 HAA         -0.9600    -0.3980    -8.8980 hc         1 FI4       0.014033
     40 HAAA        -2.4840     0.2640    -9.5020 hc         1 FI4       0.014033
     41 HAAB        -2.4450    -0.5950    -7.9560 hc         1 FI4       0.014033
     42 HAJ          0.6260     4.6410    -6.7770 ha         1 FI4       0.122000
     43 HAG         -0.5200     5.5790    -8.7450 ha         1 FI4       0.110000
     44 HAF         -2.5290     6.9760    -8.4570 ha         1 FI4       0.106000
     45 HAI         -3.4000     7.4460    -6.2020 ha         1 FI4       0.117000
     46 H16          1.4370     5.0280    -1.3850 hn         1 FI4       0.157700
@<TRIPOS>BOND
     1     1     2 1   
     2     2     3 ar  
     3     2     8 ar  
     4     3     4 ar  
     5     3    31 1   
     6     4     5 1   
     7     4     6 ar  
     8     6     7 ar  
     9     6    32 1   
    10     7     8 ar  
    11     7    33 1   
    12     8     9 1   
    13     9    10 1   
    14    10    11 ar  
    15    10    12 ar  
    16    11    20 ar  
    17    12    13 ar  
    18    13    14 1   
    19    13    19 ar  
    20    14    15 1   
    21    14    34 1   
    22    15    16 1   
    23    15    35 1   
    24    15    36 1   
    25    16    17 1   
    26    16    18 1   
    27    16    37 1   
    28    17    38 1   
    29    18    39 1   
    30    18    40 1   
    31    18    41 1   
    32    19    20 ar  
    33    19    23 1   
    34    20    21 1   
    35    21    22 1   
    36    21    46 1   
    37    22    23 2   
    38    23    24 1   
    39    24    25 ar  
    40    24    27 ar  
    41    25    26 1   
    42    25    30 ar  
    43    27    28 ar  
    44    27    42 1   
    45    28    29 ar  
    46    28    43 1   
    47    29    30 ar  
    48    29    44 1   
    49    30    45 1   
@<TRIPOS>SUBSTRUCTURE
     1 FI4         1 TEMP              0 ****  ****    0 ROOT
