@<TRIPOS>MOLECULE
molecule
   12    12     1     0     0
SMALL
bcc


@<TRIPOS>ATOM
      1 F6           0.0430    -2.3690     0.0040 f          1 FIB      -0.095900
      2 C6          -0.6320    -1.1990     0.0040 ca         1 FIB       0.162900
      3 C1           0.0600     0.0000     0.0020 ca         1 FIB      -0.021100
      4 I1           2.1550     0.0000    -0.0010 i          1 FIB      -0.078900
      5 C5          -2.0180    -1.2000     0.0000 ca         1 FIB       0.068900
      6 F5          -2.6930    -2.3700    -0.0030 f          1 FIB      -0.098900
      7 C4          -2.7110    -0.0000    -0.0000 ca         1 FIB       0.121900
      8 F4          -4.0620    -0.0000    -0.0040 f          1 FIB      -0.094900
      9 C3          -2.0180     1.2000     0.0030 ca         1 FIB       0.068900
     10 F3          -2.6930     2.3700     0.0020 f          1 FIB      -0.098900
     11 C2          -0.6320     1.1990     0.0010 ca         1 FIB       0.162900
     12 F2           0.0430     2.3690    -0.0010 f          1 FIB      -0.095900
@<TRIPOS>BOND
     1     1     2 1
     2     2     3 ar
     3     2     5 ar
     4     3     4 1
     5     3    11 ar
     6     5     6 1
     7     5     7 ar
     8     7     8 1
     9     7     9 ar
    10     9    10 1
    11     9    11 ar
    12    11    12 1
@<TRIPOS>SUBSTRUCTURE
     1 FIB         1 TEMP              0 ****  ****    0 ROOT
