@<TRIPOS>MOLECULE
molecule
   18    19     1     0     0
SMALL
bcc


@<TRIPOS>ATOM
      1 O12          0.0000     0.0000     0.0000 o          1 FIC      -0.822800
      2 C10          1.3480     0.0000     0.0000 c          1 FIC       0.893800
      3 O11          1.9560     0.0000     1.0530 o          1 FIC      -0.822800
      4 C2           2.0830     0.0000    -1.2720 cc         1 FIC      -0.035300
      5 N1           1.5080     0.0060    -2.5300 na         1 FIC      -0.149400
      6 C3           3.4360     0.0000    -1.4010 cd         1 FIC      -0.212200
      7 C9           3.7370     0.0010    -2.7850 ca         1 FIC      -0.082800
      8 C4           4.9370     0.0000    -3.5080 ca         1 FIC      -0.133000
      9 C5           4.9080     0.0010    -4.8740 ca         1 FIC       0.077900
     10 F14          6.0660     0.0000    -5.5680 f          1 FIC      -0.169900
     11 C6           3.6940     0.0000    -5.5550 ca         1 FIC      -0.180000
     12 C7           2.5030     0.0010    -4.8660 ca         1 FIC      -0.116000
     13 C8           2.5080     0.0050    -3.4730 ca         1 FIC      -0.085200
     14 H3           4.2020     0.0040    -0.6360 ha         1 FIC       0.158000
     15 H4           5.8840     0.0750    -2.9860 ha         1 FIC       0.131000
     16 H6           3.6870     0.0010    -6.6380 ha         1 FIC       0.122000
     17 H7           1.5640     0.0000    -5.4050 ha         1 FIC       0.117000
     18 HN1          0.5310     0.0050    -2.7460 hn         1 FIC       0.309700
@<TRIPOS>BOND
     1     2     1 1
     2     3     2 1
     3     4     2 1
     4     5     4 1
     5     4     6 2
     6     5    13 1
     7     7     6 1
     8     6    14 1
     9    13     7 ar
    10     7     8 ar
    11     9     8 ar
    12     8    15 1
    13    11     9 ar
    14     9    10 1
    15    12    11 ar
    16    11    16 1
    17    12    13 ar
    18    12    17 1
    19     5    18 1
@<TRIPOS>SUBSTRUCTURE
     1 FIC         1 TEMP              0 ****  ****    0 ROOT
