@<TRIPOS>MOLECULE
molecule
   31    33     1     0     0
SMALL
bcc


@<TRIPOS>ATOM
      1 C2I          0.0000     0.0000     0.0000 c          1 FID       0.803500
      2 N4           1.3380     0.0000     0.0000 ns         1 FID      -0.573500
      3 C5           1.8360     0.0000     1.2540 c          1 FID       0.705500
      4 C7I          0.6310     0.0020     2.1640 c3         1 FID       0.075700
      5 C12          0.6180    -1.2280     3.0280 ca         1 FID      -0.146300
      6 C13          0.4070    -2.4580     2.4230 ca         1 FID      -0.119000
      7 C14          0.3950    -3.6160     3.1770 ca         1 FID       0.146900
      8 F17          0.1880    -4.8110     2.5800 f          1 FID      -0.111900
      9 C15          0.5960    -3.5470     4.5440 ca         1 FID      -0.115000
     10 C16          0.8040    -2.3260     5.1500 ca         1 FID      -0.101000
     11 C11          0.8120    -1.1530     4.3950 ca         1 FID       0.094100
     12 O10          1.0000     0.0090     5.0640 os         1 FID      -0.266900
     13 C9           1.5690     0.9940     4.2150 c3         1 FID       0.066100
     14 C19          1.7740     2.2700     4.9890 c          1 FID       0.474100
     15 N21          2.3020     3.3500     4.3820 nz         1 FID      -0.682400
     16 O20          1.4610     2.3260     6.1600 o          1 FID      -0.355100
     17 C8I          0.6190     1.2520     3.0380 c3         1 FID      -0.118400
     18 N1I         -0.5130     0.0010     1.2460 ns         1 FID      -0.586900
     19 O6I          3.0020    -0.0020     1.5820 o          1 FID      -0.583500
     20 O3I         -0.6760     0.0010    -1.0100 o          1 FID      -0.591500
     21 H4           1.9010    -0.0010    -0.8280 hn         1 FID       0.382500
     22 H13          0.2510    -2.5110     1.3530 ha         1 FID       0.165000
     23 H15          0.5880    -4.4530     5.1390 ha         1 FID       0.174000
     24 H16          0.9610    -2.2780     6.2210 ha         1 FID       0.167000
     25 H9           2.5200     0.6380     3.8390 h1         1 FID       0.117700
     26 H211         2.9370     3.0540     3.6670 hn         1 FID       0.482467
     27 H212         1.5690     3.8940     3.9710 hn         1 FID       0.482467
     28 H8I1        -0.3830     1.4330     3.4070 hc         1 FID       0.072200
     29 H8I2         0.9670     2.1040     2.4660 hc         1 FID       0.072200
     30 H1I         -1.4820     0.0020     1.4950 hn         1 FID       0.387500
     31 H213         2.8100     3.8940     5.0510 hn         1 FID       0.482467
@<TRIPOS>BOND
     1     1     2 1
     2     1    18 1
     3     1    20 2
     4     2     3 1
     5     2    21 1
     6     3     4 1
     7     3    19 2
     8     4     5 1
     9     4    17 1
    10     4    18 1
    11     5     6 ar
    12     5    11 ar
    13     6     7 ar
    14     6    22 1
    15     7     8 1
    16     7     9 ar
    17     9    10 ar
    18     9    23 1
    19    10    11 ar
    20    10    24 1
    21    11    12 1
    22    12    13 1
    23    13    14 1
    24    13    17 1
    25    13    25 1
    26    14    15 1
    27    14    16 2
    28    15    26 1
    29    15    27 1
    30    17    28 1
    31    17    29 1
    32    18    30 1
    33    31    15 1
@<TRIPOS>SUBSTRUCTURE
     1 FID         1 TEMP              0 ****  ****    0 ROOT
