@<TRIPOS>MOLECULE
molecule
   20    20     1     0     0
SMALL
bcc


@<TRIPOS>ATOM
      1 O6B          0.0000     0.0000     0.0000 o          1 FIF      -0.830800
      2 C6           1.3430     0.0000     0.0000 c          1 FIF       0.905600
      3 O6A          1.9470     0.0000     1.0470 o          1 FIF      -0.830800
      4 C5           2.0960     0.0030    -1.3050 c3         1 FIF       0.039100
      5 O5           3.4970    -0.1150    -1.0470 os         1 FIF      -0.364600
      6 C4           1.8230     1.3120    -2.0500 c3         1 FIF       0.127100
      7 O4           2.2050     2.4170    -1.2280 oh         1 FIF      -0.565800
      8 C3           2.6390     1.3320    -3.3460 c3         1 FIF       0.089100
      9 O3           2.2120     0.2660    -4.1960 oh         1 FIF      -0.596800
     10 C2           4.1220     1.1550    -3.0060 c3         1 FIF       0.135600
     11 F2           4.5560     2.2330    -2.2280 f          1 FIF      -0.225300
     12 C1           4.3060    -0.1490    -2.2250 c3         1 FIF       0.113400
     13 H2           1.7720    -0.8320    -1.9150 h1         1 FIF       0.043700
     14 H3           0.7680     1.3790    -2.2880 h1         1 FIF       0.056700
     15 H4           1.5150     3.0600    -1.2260 ho         1 FIF       0.384000
     16 H5           2.4960     2.2810    -3.8480 h1         1 FIF       0.023700
     17 H6           1.8990     0.6200    -5.0120 ho         1 FIF       0.389000
     18 H7           4.6980     1.1090    -3.9220 h1         1 FIF       0.024700
     19 H8           4.0060    -0.9850    -2.8440 h1         1 FIF       0.041200
     20 H9           5.3470    -0.2560    -1.9430 h1         1 FIF       0.041200
@<TRIPOS>BOND
     1     7     6 1
     2     6     8 1
     3     6     4 1
     4     8     9 1
     5     8    10 1
     6     3     2 1
     7     2     1 1
     8     2     4 1
     9    11    10 1
    10     4     5 1
    11    12    10 1
    12    12     5 1
    13     4    13 1
    14     6    14 1
    15     7    15 1
    16     8    16 1
    17     9    17 1
    18    10    18 1
    19    12    19 1
    20    12    20 1
@<TRIPOS>SUBSTRUCTURE
     1 FIF         1 TEMP              0 ****  ****    0 ROOT
