@<TRIPOS>MOLECULE
FIF
   20    20     1     0     0
SMALL
bcc


@<TRIPOS>ATOM
      1 O6B         1.0510    1.0740    0.6300 o         1 FIF     -0.814800
      2 C6          1.1890    0.0370   -0.0720 c         1 FIF      0.938600
      3 O6A         0.6360   -1.0730    0.1310 o         1 FIF     -0.814800
      4 C5          2.0940    0.1230   -1.3450 c3        1 FIF     -0.042900
      5 O5          3.4360    0.3280   -0.9080 os        1 FIF     -0.369600
      6 C4          1.6700    1.2480   -2.2920 c3        1 FIF      0.122100
      7 O4          1.6250    2.5300   -1.7000 oh        1 FIF     -0.627800
      8 C3          2.6340    1.3440   -3.4930 c3        1 FIF      0.095100
      9 O3          2.3500    0.3490   -4.4620 oh        1 FIF     -0.609800
     10 C2          4.1290    1.2470   -3.0990 c3        1 FIF      0.116600
     11 F2          4.6390    2.4930   -2.7750 f         1 FIF     -0.238300
     12 C1          4.3660    0.2300   -1.9680 c3        1 FIF      0.097400
     13 H2          2.0270   -0.8590   -1.8930 h1        1 FIF      0.027700
     14 H3          0.6380    1.0200   -2.6870 h1        1 FIF      0.048700
     15 H4          1.6750    2.4130   -0.7340 ho        1 FIF      0.465000
     16 H5          2.4650    2.3220   -4.0260 h1        1 FIF      0.086700
     17 H6          2.2420   -0.4860   -3.9890 ho        1 FIF      0.401000
     18 H7          4.6930    0.8820   -4.0110 h1        1 FIF      0.036700
     19 H8          5.3610    0.4150   -1.4850 h1        1 FIF      0.040700
     20 H9          4.3350   -0.8010   -2.4150 h1        1 FIF      0.040700
@<TRIPOS>BOND
     1    1    2 1   
     2    2    3 1   
     3    2    4 1   
     4    4    5 1   
     5    4    6 1   
     6    4   13 1   
     7    5   12 1   
     8    6    7 1   
     9    6    8 1   
    10    6   14 1   
    11    7   15 1   
    12    8    9 1   
    13    8   10 1   
    14    8   16 1   
    15    9   17 1   
    16   10   11 1   
    17   10   12 1   
    18   10   18 1   
    19   12   19 1   
    20   12   20 1   
@<TRIPOS>SUBSTRUCTURE
     1 FIF         1 TEMP              0 ****  ****    0 ROOT
