@<TRIPOS>MOLECULE
molecule
   29    30     1     0     0
SMALL
bcc


@<TRIPOS>ATOM
      1 C            0.0000     0.0000     0.0000 c3         1 FIG      -0.092300
      2 N            1.0910    -0.0020    -2.5700 nc         1 FIG      -0.693300
      3 O            0.2860     0.0010     2.3420 o          1 FIG      -0.520100
      4 S            1.8110     0.0000     0.0000 ss         1 FIG      -0.189300
      5 C1          -0.5020     0.0000     1.4210 c          1 FIG       0.586700
      6 N1           3.4010    -0.0010    -2.1820 ns         1 FIG      -0.442400
      7 O1           4.0320    -0.0040    -6.3520 o          1 FIG      -0.819300
      8 C2          -1.9490     0.0000     1.6900 ca         1 FIG      -0.172600
      9 O2           1.8270    -0.0050    -6.6190 o          1 FIG      -0.819300
     10 C3          -2.8610    -0.0070     0.6290 ca         1 FIG      -0.077000
     11 O3           4.8020    -0.0030    -3.9220 o          1 FIG      -0.580500
     12 C4          -4.2150    -0.0080     0.8900 ca         1 FIG      -0.146000
     13 C5          -4.6720    -0.0010     2.1960 ca         1 FIG      -0.104000
     14 C6          -3.7750     0.0060     3.2500 ca         1 FIG      -0.146000
     15 C7          -2.4190     0.0000     3.0060 ca         1 FIG      -0.077000
     16 C8           2.1170    -0.0010    -1.7360 cd         1 FIG       0.461800
     17 C9           1.2640    -0.0030    -3.8820 cc         1 FIG       0.097600
     18 C10          2.5580    -0.0040    -4.4100 cd         1 FIG      -0.229400
     19 C11          2.7770    -0.0050    -5.8600 c          1 FIG       0.886800
     20 C12          3.6570    -0.0020    -3.5080 c          1 FIG       0.672700
     21 H           -0.3610     0.8850    -0.5110 h1         1 FIG       0.103700
     22 HA          -0.3610    -0.8850    -0.5110 h1         1 FIG       0.103700
     23 HN1          4.1580    -0.0010    -1.5270 hn         1 FIG       0.318500
     24 H3          -2.5050    -0.0120    -0.3940 ha         1 FIG       0.149500
     25 H4          -4.9230    -0.0130     0.0700 ha         1 FIG       0.132000
     26 H5          -5.7370     0.0010     2.3950 ha         1 FIG       0.127000
     27 H6          -4.1400     0.0090     4.2700 ha         1 FIG       0.132000
     28 H7          -1.7190     0.0050     3.8330 ha         1 FIG       0.149500
     29 H9           0.4070    -0.0030    -4.5440 h4         1 FIG       0.185000
@<TRIPOS>BOND
     1     5     1 1
     2     1     4 1
     3     1    21 1
     4     1    22 1
     5    16     2 2
     6     2    17 1
     7     3     5 2
     8     4    16 1
     9     8     5 1
    10    16     6 1
    11     6    20 1
    12     6    23 1
    13    19     7 1
    14    10     8 ar
    15     8    15 ar
    16    19     9 1
    17    12    10 ar
    18    10    24 1
    19    20    11 2
    20    12    13 ar
    21    12    25 1
    22    13    14 ar
    23    13    26 1
    24    14    15 ar
    25    14    27 1
    26    15    28 1
    27    17    18 2
    28    17    29 1
    29    20    18 1
    30    18    19 1
@<TRIPOS>SUBSTRUCTURE
     1 FIG         1 TEMP              0 ****  ****    0 ROOT
