@<TRIPOS>MOLECULE
molecule
   39    41     1     0     0
SMALL
bcc


@<TRIPOS>ATOM
      1 C1           0.0000     0.0000     0.0000 ca         1 FIH      -0.168500
      2 C2           1.3860     0.0000     0.0000 ca         1 FIH       0.106900
      3 C3           2.0850     0.0000     1.1970 ca         1 FIH      -0.168500
      4 C4           1.4030    -0.0000     2.3960 ca         1 FIH      -0.099000
      5 C5           0.0070     0.0010     2.4010 ca         1 FIH       0.031000
      6 C6          -0.6910    -0.0050     1.1940 ca         1 FIH      -0.099000
      7 C7          -1.7250    -0.3050     6.1760 cc         1 FIH       0.044300
      8 C8          -2.3940     0.5390     5.2860 cd         1 FIH       0.061600
      9 C9          -1.8790     0.6910     4.0210 cd         1 FIH      -0.198000
     10 C10         -0.7290     0.0020     3.6840 cc         1 FIH      -0.039100
     11 S11         -0.3590    -0.8870     5.1860 ss         1 FIH      -0.148800
     12 F12          2.0590    -0.0000    -1.1720 f          1 FIH      -0.156900
     13 O15         -1.2730    -1.4740     8.2130 o          1 FIH      -0.818800
     14 O16         -3.0310    -0.1230     8.0350 o          1 FIH      -0.818800
     15 S18         -4.7680     1.4590     4.5800 sy         1 FIH       1.426200
     16 C19         -4.7390    -0.7250     2.9420 ca         1 FIH      -0.013500
     17 C20         -5.3230    -0.1250     4.0430 ca         1 FIH      -0.301500
     18 C21         -6.3420    -0.7670     4.7200 ca         1 FIH      -0.013500
     19 C22         -6.7780    -2.0090     4.2990 ca         1 FIH      -0.157000
     20 C23         -6.1950    -2.6090     3.1990 ca         1 FIH      -0.036300
     21 C24         -5.1730    -1.9700     2.5230 ca         1 FIH      -0.157000
     22 C25         -6.6700    -3.9630     2.7390 c3         1 FIH      -0.052800
     23 O26         -4.1550     2.0580     3.4460 o          1 FIH      -0.657300
     24 O27         -5.8460     2.0140     5.3210 o          1 FIH      -0.657300
     25 H1          -0.5410    -0.0020    -0.9390 ha         1 FIH       0.136000
     26 H3           3.1680    -0.0010     1.1910 ha         1 FIH       0.136000
     27 H4           1.9490     0.0020     3.3310 ha         1 FIH       0.145500
     28 H6          -1.7750    -0.0050     1.1930 ha         1 FIH       0.145500
     29 H9          -2.3670     1.3360     3.3010 ha         1 FIH       0.176000
     30 H17         -3.6200     1.5930     6.5950 hn         1 FIH       0.493800
     31 H21         -6.7990    -0.2970     5.5830 ha         1 FIH       0.151000
     32 H22         -7.5780    -2.5110     4.8290 ha         1 FIH       0.128000
     33 H24         -4.7160    -2.4410     1.6610 ha         1 FIH       0.128000
     34 H251        -5.9370    -4.7140     3.0080 hc         1 FIH       0.042033
     35 H252        -6.7990    -3.9550     1.6630 hc         1 FIH       0.042033
     36 H253        -7.6150    -4.1950     3.2150 hc         1 FIH       0.042033
     37 C14         -2.0500    -0.6200     7.5130 c          1 FIH       0.902200
     38 N17         -3.5490     1.2130     5.6720 nu         1 FIH      -0.726500
     39 H19         -3.9380    -0.2240     2.4120 ha         1 FIH       0.151000
@<TRIPOS>BOND
     1     1     2 ar
     2     1     6 ar
     3     1    25 1
     4     2     3 ar
     5     2    12 1
     6     3     4 ar
     7     3    26 1
     8     4     5 ar
     9     4    27 1
    10     5     6 ar
    11     5    10 1
    12     6    28 1
    13     7     8 2
    14     7    11 1
    15     7    37 1
    16     8     9 1
    17     8    38 1
    18     9    10 2
    19     9    29 1
    20    10    11 1
    21    37    13 1
    22    37    14 1
    23    38    15 1
    24    38    30 1
    25    15    17 1
    26    15    23 2
    27    15    24 2
    28    16    17 ar
    29    16    21 ar
    30    16    39 1
    31    17    18 ar
    32    18    19 ar
    33    18    31 1
    34    19    20 ar
    35    19    32 1
    36    20    21 ar
    37    20    22 1
    38    21    33 1
    39    22    34 1
    40    22    35 1
    41    22    36 1
@<TRIPOS>SUBSTRUCTURE
     1 FIH         1 TEMP              0 ****  ****    0 ROOT
