@<TRIPOS>MOLECULE
molecule
   52    51     1     0     0
SMALL
bcc


@<TRIPOS>ATOM
      1 C1           0.0000     0.0000     0.0000 c3         1 FII      -0.049400
      2 C2           1.5070     0.0000     0.0000 c2         1 FII      -0.144400
      3 C6           2.2610     0.0000     1.3040 c3         1 FII      -0.049400
      4 C10          2.1610    -0.0010    -1.1350 c2         1 FII      -0.174200
      5 C11          3.6630    -0.1280    -1.1380 c3         1 FII      -0.047200
      6 C12          4.0720    -1.2960    -2.0370 c3         1 FII      -0.032200
      7 C15          5.5740    -1.4250    -2.0410 c2         1 FII      -0.144400
      8 C18          6.3910    -0.6790    -3.0650 c3         1 FII      -0.050900
      9 C22          6.1680    -2.1830    -1.1550 c2         1 FII      -0.173200
     10 C23          7.6730    -2.2130    -1.0770 c3         1 FII      -0.049200
     11 C24          8.1150    -1.8960     0.3520 c3         1 FII      -0.025200
     12 C27          9.6210    -1.9260     0.4310 c2         1 FII      -0.176400
     13 C30         10.3320    -3.2110     0.7650 c3         1 FII      -0.044900
     14 C34         10.3080    -0.8340     0.2080 c2         1 FII      -0.128200
     15 C35         11.8140    -0.8860     0.1740 c3         1 FII       0.132600
     16 O36         12.2920    -0.1310    -0.9400 os         1 FII      -0.196900
     17 N42         13.7050    -0.2180    -0.9180 ns         1 FII      -0.486400
     18 C43         14.4340     0.4060    -1.8650 c          1 FII       0.715100
     19 O44         13.8790     1.0430    -2.7340 o          1 FII      -0.631100
     20 C45         15.9370     0.3130    -1.8420 c3         1 FII      -0.276600
     21 P46         16.6160     1.6800    -0.8490 p5         1 FII       1.015700
     22 O49         16.0950     1.5920     0.5350 o          1 FII      -0.897167
     23 O50         18.2230     1.5800    -0.8240 o          1 FII      -0.897167
     24 O51         16.1760     3.0860    -1.4980 o          1 FII      -0.897167
     25 H11         -0.3610     0.7630    -0.6790 hc         1 FII       0.038200
     26 H12         -0.3610     0.2070     1.0000 hc         1 FII       0.038200
     27 H13         -0.3610    -0.9700    -0.3210 hc         1 FII       0.038200
     28 H61          2.9930     0.7990     1.2980 hc         1 FII       0.038200
     29 H62          1.5680     0.1520     2.1230 hc         1 FII       0.038200
     30 H63          2.7650    -0.9510     1.4300 hc         1 FII       0.038200
     31 H101         1.6180    -0.0010    -2.0730 ha         1 FII       0.119000
     32 H111         4.1030     0.7880    -1.5130 hc         1 FII       0.055700
     33 H112         4.0120    -0.3100    -0.1290 hc         1 FII       0.055700
     34 H121         3.6330    -2.2120    -1.6620 hc         1 FII       0.039700
     35 H122         3.7230    -1.1150    -3.0460 hc         1 FII       0.039700
     36 H181         6.9630     0.0990    -2.5740 hc         1 FII       0.045033
     37 H182         5.7310    -0.2340    -3.8000 hc         1 FII       0.045033
     38 H183         7.0680    -1.3670    -3.5580 hc         1 FII       0.045033
     39 H221         5.5790    -2.7180    -0.4200 ha         1 FII       0.113000
     40 H231         8.0300    -3.1980    -1.3550 hc         1 FII       0.057700
     41 H232         8.0850    -1.4750    -1.7550 hc         1 FII       0.057700
     42 H241         7.7590    -0.9110     0.6300 hc         1 FII       0.037200
     43 H242         7.7040    -2.6340     1.0300 hc         1 FII       0.037200
     44 H301        10.8790    -3.5570    -0.1030 hc         1 FII       0.035700
     45 H302         9.6060    -3.9600     1.0560 hc         1 FII       0.035700
     46 H303        11.0220    -3.0400     1.5820 hc         1 FII       0.035700
     47 H341         9.7940     0.0890    -0.0310 ha         1 FII       0.136000
     48 H351        12.1380    -1.9160     0.0770 h1         1 FII       0.038200
     49 H352        12.2110    -0.4680     1.0910 h1         1 FII       0.038200
     50 HN1         14.1610    -0.7650    -0.2150 hn         1 FII       0.324500
     51 H451        16.3180     0.3780    -2.8540 hc         1 FII       0.044200
     52 H452        16.2340    -0.6320    -1.4050 hc         1 FII       0.044200
@<TRIPOS>BOND
     1     1     2 1
     2     1    25 1
     3     1    26 1
     4     1    27 1
     5     2     3 1
     6     2     4 2
     7     3    28 1
     8     3    29 1
     9     3    30 1
    10     4     5 1
    11     4    31 1
    12     5     6 1
    13     5    32 1
    14     5    33 1
    15     6     7 1
    16     6    34 1
    17     6    35 1
    18     7     8 1
    19     7     9 2
    20     8    36 1
    21     8    37 1
    22     8    38 1
    23     9    10 1
    24     9    39 1
    25    10    11 1
    26    10    40 1
    27    10    41 1
    28    11    12 1
    29    11    42 1
    30    11    43 1
    31    12    13 1
    32    12    14 2
    33    13    44 1
    34    13    45 1
    35    13    46 1
    36    14    15 1
    37    14    47 1
    38    15    16 1
    39    15    48 1
    40    15    49 1
    41    16    17 1
    42    17    18 1
    43    17    50 1
    44    18    19 2
    45    18    20 1
    46    20    21 1
    47    20    51 1
    48    20    52 1
    49    21    22 1
    50    21    23 1
    51    21    24 1
@<TRIPOS>SUBSTRUCTURE
     1 FII         1 TEMP              0 ****  ****    0 ROOT
