@<TRIPOS>MOLECULE
FII
   53    52     1     0     0
SMALL
bcc


@<TRIPOS>ATOM
      1 C1         -0.4580    0.2390   -0.2270 c3        1 FII     -0.056400
      2 C2          0.9690    0.3130   -0.6240 c2        1 FII     -0.131400
      3 C6          1.4630    1.6530   -1.0240 c3        1 FII     -0.056400
      4 C10         1.7640   -0.7690   -0.6140 c2        1 FII     -0.171200
      5 C11         3.1920   -0.7340   -1.0060 c3        1 FII     -0.045200
      6 C12         3.8880   -2.0590   -0.7480 c3        1 FII     -0.035200
      7 C15         5.3070   -2.0300   -1.2010 c2        1 FII     -0.137400
      8 C18         5.5340   -1.9810   -2.6650 c3        1 FII     -0.056900
      9 C22         6.3240   -2.0550   -0.3230 c2        1 FII     -0.161200
     10 C23         7.7490   -2.0430   -0.7250 c3        1 FII     -0.048200
     11 C24         8.6780   -1.8920    0.4660 c3        1 FII     -0.031200
     12 C27        10.1090   -1.9320    0.0540 c2        1 FII     -0.147400
     13 C30        10.6440   -3.2470   -0.3730 c3        1 FII     -0.057900
     14 C34        10.8760   -0.8300    0.0840 c2        1 FII     -0.151200
     15 C35        12.3090   -0.8400   -0.3050 c3        1 FII      0.153600
     16 O36        12.7730    0.5320   -0.1510 os        1 FII     -0.278900
     17 N42        13.9950    0.7470   -0.6570 n         1 FII     -0.377400
     18 C43        15.0800    0.5290    0.2610 c         1 FII      0.668100
     19 O44        14.9520   -0.3630    1.1210 o         1 FII     -0.607100
     20 C45        16.3130    1.3430    0.1210 c3        1 FII     -0.391600
     21 P46        17.3480    1.0910   -1.2550 p5        1 FII      1.336600
     22 O49        16.6770    1.7170   -2.4200 o         1 FII     -0.857000
     23 O50        18.7290    1.3730   -0.8160 o         1 FII     -0.857000
     24 O51        17.1840   -0.5040   -1.5840 oh        1 FII     -0.788400
     25 H11        -1.1100    0.5390   -1.0850 hc        1 FII      0.038867
     26 H12        -0.6560    0.9390    0.6230 hc        1 FII      0.038867
     27 H13        -0.7460   -0.7930    0.0900 hc        1 FII      0.038867
     28 H61         2.2040    2.0300   -0.2740 hc        1 FII      0.038867
     29 H62         0.6270    2.3900   -1.0970 hc        1 FII      0.038867
     30 H63         1.9780    1.6000   -2.0160 hc        1 FII      0.038867
     31 H101        1.3690   -1.7500   -0.3070 ha        1 FII      0.120000
     32 H111        3.2740   -0.4760   -2.0990 hc        1 FII      0.052200
     33 H112        3.7200    0.0830   -0.4420 hc        1 FII      0.052200
     34 H121        3.3450   -2.8780   -1.2930 hc        1 FII      0.042700
     35 H122        3.8320   -2.2960    0.3480 hc        1 FII      0.042700
     36 H181        4.5840   -2.1380   -3.2320 hc        1 FII      0.040033
     37 H182        6.2660   -2.7680   -2.9740 hc        1 FII      0.040033
     38 H183        5.9570   -0.9860   -2.9560 hc        1 FII      0.040033
     39 H221        6.1260   -2.0890    0.7610 ha        1 FII      0.120000
     40 H231        7.9920   -2.9980   -1.2700 hc        1 FII      0.052700
     41 H232        7.9320   -1.2040   -1.4500 hc        1 FII      0.052700
     42 H241        8.4840   -2.7220    1.1990 hc        1 FII      0.042200
     43 H242        8.4500   -0.9260    0.9910 hc        1 FII      0.042200
     44 H301       11.5260   -3.5290    0.2560 hc        1 FII      0.040033
     45 H302        9.8740   -4.0510   -0.2840 hc        1 FII      0.040033
     46 H303       10.9860   -3.2000   -1.4380 hc        1 FII      0.040033
     47 H341       10.4760    0.1440    0.4070 ha        1 FII      0.136000
     48 H351       12.4380   -1.1780   -1.3670 h1        1 FII      0.066700
     49 H352       12.9170   -1.4970    0.3750 h1        1 FII      0.066700
     50 HN1        16.6730   -0.6510   -2.3730 ho        1 FII      0.429000
     51 H451       16.9400    1.1640    1.0320 hc        1 FII      0.092700
     52 H452       16.0430    2.4280    0.1040 hc        1 FII      0.092700
     53 H422       13.9960    1.6610   -1.0920 hn        1 FII      0.307500
@<TRIPOS>BOND
     1    1    2 1   
     2    1   25 1   
     3    1   26 1   
     4    1   27 1   
     5    2    3 1   
     6    2    4 2   
     7    3   28 1   
     8    3   29 1   
     9    3   30 1   
    10    4    5 1   
    11    4   31 1   
    12    5    6 1   
    13    5   32 1   
    14    5   33 1   
    15    6    7 1   
    16    6   34 1   
    17    6   35 1   
    18    7    8 1   
    19    7    9 2   
    20    8   36 1   
    21    8   37 1   
    22    8   38 1   
    23    9   10 1   
    24    9   39 1   
    25   10   11 1   
    26   10   40 1   
    27   10   41 1   
    28   11   12 1   
    29   11   42 1   
    30   11   43 1   
    31   12   13 1   
    32   12   14 2   
    33   13   44 1   
    34   13   45 1   
    35   13   46 1   
    36   14   15 1   
    37   14   47 1   
    38   15   16 1   
    39   15   48 1   
    40   15   49 1   
    41   16   17 1   
    42   17   18 1   
    43   17   53 1   
    44   18   19 2   
    45   18   20 1   
    46   20   21 1   
    47   20   51 1   
    48   20   52 1   
    49   21   22 1   
    50   21   23 1   
    51   21   24 1   
    52   24   50 1   
@<TRIPOS>SUBSTRUCTURE
     1 FII         1 TEMP              0 ****  ****    0 ROOT
