@<TRIPOS>MOLECULE
molecule
   42    44     1     0     0
SMALL
bcc


@<TRIPOS>ATOM
      1 C14          1.5300     0.0000     0.0000 c3         1 FIJ      -0.110100
      2 C15         -0.4800     0.0000     1.4370 ca         1 FIJ      -0.111300
      3 C16         -1.2460    -1.0480     1.9100 ca         1 FIJ      -0.051000
      4 C17         -1.6810    -1.0530     3.2220 ca         1 FIJ      -0.032600
      5 C10         -0.5800     1.0490     3.5960 ca         1 FIJ      -0.246000
      6 C11         -0.1450     1.0510     2.2800 ca         1 FIJ       0.157100
      7 C12         -1.5780     1.8510    -2.8790 c3         1 FIJ      -0.082100
      8 C13          0.8790     2.0680    -2.5760 c3         1 FIJ      -0.082100
      9 C01         -0.1700    -0.1730    -2.7710 ca         1 FIJ      -0.136300
     10 C02         -0.2580    -1.2980    -1.9700 ca         1 FIJ       0.159100
     11 C03         -0.1070    -2.5650    -2.5180 ca         1 FIJ      -0.177000
     12 C04          0.1320    -2.7100    -3.8740 ca         1 FIJ       0.138100
     13 C05          0.2230    -1.5820    -4.6780 ca         1 FIJ      -0.023600
     14 C06          0.0720    -0.3240    -4.1280 ca         1 FIJ      -0.080000
     15 C07         -0.3430     1.2140    -2.2140 c3         1 FIJ      -0.009700
     16 C08         -0.5520     1.2340    -0.7060 c3         1 FIJ      -0.094400
     17 C09          0.0000     0.0000     0.0000 c3         1 FIJ       0.222100
     18 C           -1.3490    -0.0030     4.0680 ca         1 FIJ       0.154100
     19 O01         -0.4870    -1.1810    -0.6360 os         1 FIJ      -0.329900
     20 O02          0.2770    -3.9480    -4.4130 oh         1 FIJ      -0.508100
     21 O03         -1.7750    -0.0080     5.3590 oh         1 FIJ      -0.509100
     22 O            0.6090     2.0820     1.8150 oh         1 FIJ      -0.496100
     23 Cl1          0.5270    -1.7530    -6.3800 cl         1 FIJ      -0.098400
     24 Cl          -2.6430    -2.3720     3.8130 cl         1 FIJ      -0.089400
     25 H1           1.8910     1.0170     0.0970 hc         1 FIJ       0.053033
     26 H2           1.8910    -0.5920     0.8320 hc         1 FIJ       0.053033
     27 H3           1.8910    -0.4250    -0.9290 hc         1 FIJ       0.053033
     28 H4          -1.5060    -1.8670     1.2510 ha         1 FIJ       0.173000
     29 H5          -0.3190     1.8690     4.2540 ha         1 FIJ       0.148000
     30 H6          -1.3700     2.0340    -3.9270 hc         1 FIJ       0.039367
     31 H7          -1.8090     2.7890    -2.3890 hc         1 FIJ       0.039367
     32 H8          -2.4230     1.1800    -2.7910 hc         1 FIJ       0.039367
     33 H9           0.9000     2.9520    -1.9510 hc         1 FIJ       0.039367
     34 H10          0.8180     2.3630    -3.6170 hc         1 FIJ       0.039367
     35 H11          1.7830     1.4910    -2.4170 hc         1 FIJ       0.039367
     36 H12         -0.1790    -3.4410    -1.8840 ha         1 FIJ       0.159000
     37 H13          0.1440     0.5520    -4.7610 ha         1 FIJ       0.149000
     38 H14         -1.6140     1.3000    -0.5060 hc         1 FIJ       0.067200
     39 H15         -0.0610     2.1110    -0.3020 hc         1 FIJ       0.067200
     40 H16         -0.5720    -4.3050    -4.6160 ho         1 FIJ       0.425000
     41 H17         -2.5670     0.4990     5.4300 ho         1 FIJ       0.427000
     42 H18          0.8400     2.6500     2.5310 ho         1 FIJ       0.426000
@<TRIPOS>BOND
     1     8    15 1
     2    23    13 1
     3     7    15 1
     4    14    13 ar
     5    14     9 ar
     6    15     9 1
     7    15    16 1
     8    13    12 ar
     9     9    10 ar
    10    16    17 1
    11    22     6 1
    12    12    20 1
    13    12    11 ar
    14    10    11 ar
    15    10    19 1
    16    17    19 1
    17    17     2 1
    18    17     1 1
    19     6     2 ar
    20     6     5 ar
    21     2     3 ar
    22     5    18 ar
    23     3     4 ar
    24    18     4 ar
    25    18    21 1
    26     4    24 1
    27     1    25 1
    28     1    26 1
    29     1    27 1
    30     3    28 1
    31     5    29 1
    32     7    30 1
    33     7    31 1
    34     7    32 1
    35     8    33 1
    36     8    34 1
    37     8    35 1
    38    11    36 1
    39    14    37 1
    40    16    38 1
    41    16    39 1
    42    20    40 1
    43    21    41 1
    44    22    42 1
@<TRIPOS>SUBSTRUCTURE
     1 FIJ         1 TEMP              0 ****  ****    0 ROOT
