@<TRIPOS>MOLECULE
FIL
   42    43     1     0     0
SMALL
bcc


@<TRIPOS>ATOM
      1 O19          0.0000     0.0000     0.0000 o          1 FIL      -0.401000
      2 C18          1.2150     0.0000     0.0000 c          1 FIL       0.376100
      3 N20          1.8900     0.0000     1.1670 nz         1 FIL       0.268600
      4 O21          1.8870    -0.0000    -1.1660 os         1 FIL      -0.082600
      5 N2           1.2770    -0.0010    -2.2210 n2         1 FIL      -0.458200
      6 C1           1.9250    -0.0000    -3.3410 ce         1 FIL       0.510900
      7 C17          3.4320    -0.0010    -3.3420 c3         1 FIL      -0.070400
      8 C3           1.1870    -0.0000    -4.6190 ca         1 FIL      -0.194900
      9 C4           1.8830    -0.0010    -5.8290 ca         1 FIL      -0.051000
     10 C5           1.1910    -0.0010    -7.0210 ca         1 FIL      -0.201000
     11 C6          -0.1960    -0.0030    -7.0230 ca         1 FIL       0.153100
     12 O7          -0.8720    -0.0040    -8.2010 os         1 FIL      -0.252900
     13 C8           0.1080    -0.0020    -9.2410 c3         1 FIL       0.211700
     14 C9          -0.8970     0.0020    -5.8180 ca         1 FIL       0.102100
     15 C16         -0.2110    -0.0020    -4.6190 ca         1 FIL      -0.153000
     16 O10         -2.2560     0.0030    -5.8240 os         1 FIL      -0.246900
     17 C11         -2.6740     0.1590    -4.4660 c3         1 FIL       0.131100
     18 C12         -2.6870    -1.2110    -3.7560 c3         1 FIL      -0.047900
     19 C13         -3.9210    -1.1430    -2.8230 c3         1 FIL      -0.020900
     20 C14         -4.9550    -0.3710    -3.6790 c3         1 FIL      -0.020900
     21 C15         -4.1160     0.6930    -4.4160 c3         1 FIL      -0.047900
     22 H201         2.4600    -0.8210     1.2230 hn         1 FIL       0.245467
     23 H202         1.2400     0.0070     1.9280 hn         1 FIL       0.245467
     24 H171         3.7920    -0.8850    -3.8540 hc         1 FIL       0.028367
     25 H172         3.7930    -0.0030    -2.3210 hc         1 FIL       0.028367
     26 H173         3.7930     0.8840    -3.8520 hc         1 FIL       0.028367
     27 H4           2.9660     0.0010    -5.8310 ha         1 FIL       0.108000
     28 H5           1.7330    -0.0020    -7.9600 ha         1 FIL       0.148000
     29 H81         -0.3880    -0.0030   -10.2040 h1         1 FIL       0.008700
     30 H82          0.7280    -0.8860    -9.1540 h1         1 FIL       0.008700
     31 H83          0.7260     0.8830    -9.1530 h1         1 FIL       0.008700
     32 H16         -0.7540     0.0030    -3.6820 ha         1 FIL       0.166000
     33 H11         -2.0120     0.8380    -3.9450 h1         1 FIL       0.032700
     34 H121        -1.7820    -1.3440    -3.1770 hc         1 FIL       0.029200
     35 H122        -2.8040    -2.0100    -4.4790 hc         1 FIL       0.029200
     36 H131        -3.6870    -0.5930    -1.9190 hc         1 FIL       0.019950
     37 H132        -4.2820    -2.1380    -2.5930 hc         1 FIL       0.019950
     38 H141        -5.6920     0.1050    -3.0430 hc         1 FIL       0.019950
     39 H142        -5.4300    -1.0370    -4.3890 hc         1 FIL       0.019950
     40 H151        -4.1450     1.6290    -3.8720 hc         1 FIL       0.029200
     41 H152        -4.4950     0.8300    -5.4220 hc         1 FIL       0.029200
     42 H203         2.4760     0.8100     1.2130 hn         1 FIL       0.245467
@<TRIPOS>BOND
     1     1     2 2   
     2     2     3 1   
     3     2     4 1   
     4     3    22 1   
     5     3    23 1   
     6     3    42 1   
     7     4     5 1   
     8     5     6 2   
     9     6     7 1   
    10     6     8 1   
    11     7    24 1   
    12     7    25 1   
    13     7    26 1   
    14     8     9 ar  
    15     8    15 ar  
    16     9    10 ar  
    17     9    27 1   
    18    10    11 ar  
    19    10    28 1   
    20    11    12 1   
    21    11    14 ar  
    22    12    13 1   
    23    13    29 1   
    24    13    30 1   
    25    13    31 1   
    26    14    15 ar  
    27    14    16 1   
    28    15    32 1   
    29    16    17 1   
    30    17    18 1   
    31    17    21 1   
    32    17    33 1   
    33    18    19 1   
    34    18    34 1   
    35    18    35 1   
    36    19    20 1   
    37    19    36 1   
    38    19    37 1   
    39    20    21 1   
    40    20    38 1   
    41    20    39 1   
    42    21    40 1   
    43    21    41 1   
@<TRIPOS>SUBSTRUCTURE
     1 FIL         1 TEMP              0 ****  ****    0 ROOT
