@<TRIPOS>MOLECULE
FIN
   46    47     1     0     0
SMALL
bcc


@<TRIPOS>ATOM
      1 C14          0.0000     0.0000     0.0000 cp         1 FIN      -0.034000
      2 C15          1.3930     0.0000     0.0000 ca         1 FIN      -0.054500
      3 C16          2.0820     0.0000     1.1950 ca         1 FIN      -0.187500
      4 C17          1.3890    -0.0110     2.3970 ca         1 FIN       0.104100
      5 C1          -0.0000    -0.0110     2.4010 ca         1 FIN      -0.187500
      6 C2          -0.6950    -0.0050     1.2090 ca         1 FIN      -0.054500
      7 O1           2.0690    -0.0160     3.5730 os         1 FIN      -0.297900
      8 C3           3.4600    -0.0150     3.2440 c3         1 FIN       0.216700
      9 C4          -0.7430     0.0050    -1.2840 cp         1 FIN      -0.026000
     10 C5          -1.8930    -0.7690    -1.4300 ca         1 FIN      -0.132500
     11 C6          -2.5840    -0.7550    -2.6250 ca         1 FIN       0.019000
     12 C7          -2.1310     0.0150    -3.6790 ca         1 FIN      -0.102500
     13 C8          -0.9880     0.7820    -3.5430 ca         1 FIN       0.019000
     14 C9          -0.2930     0.7810    -2.3500 ca         1 FIN      -0.132500
     15 S1          -3.0150     0.0230    -5.2040 sy         1 FIN       0.956200
     16 O2          -2.6590     1.2360    -5.8510 o          1 FIN      -0.643300
     17 O3          -4.3390    -0.3820    -4.8850 o          1 FIN      -0.643300
     18 N1          -2.3890    -1.1880    -6.1440 n7         1 FIN      -0.441100
     19 C10         -2.5310    -2.5860    -5.7300 c3         1 FIN       0.184300
     20 C11         -3.8290    -3.1590    -6.3050 c3         1 FIN      -0.030700
     21 C12         -3.8510    -2.9490    -7.8190 c3         1 FIN      -0.007100
     22 C13         -3.9060    -4.6550    -5.9960 c3         1 FIN      -0.007100
     23 P1          -1.1150    -3.5510    -6.3480 p5         1 FIN       0.434700
     24 O4           0.2570    -2.8390    -5.8990 o          1 FIN      -0.734500
     25 O5          -1.1730    -3.6220    -7.8250 o          1 FIN      -0.734500
     26 O6          -1.1710    -5.0400    -5.7360 o          1 FIN      -0.734500
     27 H15          1.9350     0.0060    -0.9380 ha         1 FIN       0.116000
     28 H16          3.1660     0.0000     1.1950 ha         1 FIN       0.113500
     29 H1          -0.5390    -0.0180     3.3410 ha         1 FIN       0.113500
     30 H2          -1.7780    -0.0050     1.2120 ha         1 FIN       0.116000
     31 H31          3.6940     0.8730     2.6690 h1         1 FIN      -0.001967
     32 H32          3.6930    -0.8960     2.6600 h1         1 FIN      -0.001967
     33 H33          4.0460    -0.0200     4.1550 h1         1 FIN      -0.001967
     34 H5          -2.2490    -1.3730    -0.6040 ha         1 FIN       0.094000
     35 H6          -3.4790    -1.3550    -2.7380 ha         1 FIN       0.123500
     36 H8          -0.6380     1.3840    -4.3720 ha         1 FIN       0.123500
     37 H9           0.6020     1.3810    -2.2440 ha         1 FIN       0.094000
     38 HN1         -1.8820    -0.9630    -6.9770 hn         1 FIN       0.364800
     39 H10         -2.5600    -2.6410    -4.6480 h1         1 FIN       0.006700
     40 H11         -4.6770    -2.6540    -5.8570 hc         1 FIN      -0.016300
     41 H121        -4.8530    -2.6790    -8.1320 hc         1 FIN       0.001200
     42 H122        -3.1650    -2.1530    -8.0840 hc         1 FIN       0.001200
     43 H123        -3.5520    -3.8640    -8.3160 hc         1 FIN       0.001200
     44 H131        -4.9400    -4.9780    -6.0290 hc         1 FIN       0.001200
     45 H132        -3.3330    -5.2060    -6.7320 hc         1 FIN       0.001200
     46 H133        -3.5010    -4.8420    -5.0090 hc         1 FIN       0.001200
@<TRIPOS>BOND
     1     1     2 ar  
     2     1     6 ar  
     3     1     9 1   
     4     2     3 ar  
     5     2    27 1   
     6     3     4 ar  
     7     3    28 1   
     8     4     5 ar  
     9     4     7 1   
    10     5     6 ar  
    11     5    29 1   
    12     6    30 1   
    13     7     8 1   
    14     8    31 1   
    15     8    32 1   
    16     8    33 1   
    17     9    10 ar  
    18     9    14 ar  
    19    10    11 ar  
    20    10    34 1   
    21    11    12 ar  
    22    11    35 1   
    23    12    13 ar  
    24    12    15 1   
    25    13    14 ar  
    26    13    36 1   
    27    14    37 1   
    28    15    16 2   
    29    15    17 2   
    30    15    18 1   
    31    18    19 1   
    32    18    38 1   
    33    19    20 1   
    34    19    23 1   
    35    19    39 1   
    36    20    21 1   
    37    20    22 1   
    38    20    40 1   
    39    21    41 1   
    40    21    42 1   
    41    21    43 1   
    42    22    44 1   
    43    22    45 1   
    44    22    46 1   
    45    23    24 1   
    46    23    25 1   
    47    23    26 1   
@<TRIPOS>SUBSTRUCTURE
     1 FIN         1 TEMP              0 ****  ****    0 ROOT
