@<TRIPOS>MOLECULE
molecule
   29    30     1     0     0
SMALL
bcc


@<TRIPOS>ATOM
      1 C3           0.0000     0.0000     0.0000 cc         1 FIP      -0.100400
      2 C9           1.4650     0.0000     0.0000 ca         1 FIP      -0.073800
      3 C8           1.8540     0.0000     1.3510 ca         1 FIP      -0.056200
      4 C4           2.4330     0.0140    -1.0050 ca         1 FIP      -0.092000
      5 C2          -0.3920    -0.0070     1.2840 cd         1 FIP      -0.125100
      6 N1           0.7010    -0.0070     2.1060 na         1 FIP      -0.195400
      7 C7           3.2070     0.0040     1.6740 ca         1 FIP      -0.141000
      8 C5           3.7690     0.0170    -0.6630 ca         1 FIP       0.076900
      9 C6           4.1520     0.0120     0.6720 ca         1 FIP      -0.157000
     10 F            4.7100     0.0260    -1.6330 f          1 FIP      -0.156900
     11 C3P         -0.8970     0.0020    -1.2110 c3         1 FIP      -0.020200
     12 C2P         -1.2060     1.4440    -1.6150 c3         1 FIP      -0.085400
     13 C1P         -2.1150     1.4450    -2.8450 c3         1 FIP       0.160400
     14 P           -3.3620     2.7190    -4.5140 p5         1 FIP       1.157900
     15 OP1         -2.6610     2.0070    -5.6060 o          1 FIP      -0.913500
     16 OP2         -3.7290     4.2110    -4.9960 o          1 FIP      -0.913500
     17 OP3         -4.7130     1.9290    -4.1380 o          1 FIP      -0.913500
     18 OP4         -2.4040     2.7930    -3.2220 os         1 FIP      -0.542200
     19 H4           2.1380     0.0180    -2.0470 ha         1 FIP       0.165000
     20 H2          -1.4220    -0.0130     1.6190 h4         1 FIP       0.171000
     21 HN1          0.6680    -0.0120     3.1060 hn         1 FIP       0.280700
     22 H7           3.5170    -0.0010     2.7120 ha         1 FIP       0.113000
     23 H6           5.2040     0.0140     0.9280 ha         1 FIP       0.125000
     24 H3P1        -0.4000    -0.5040    -2.0300 hc         1 FIP       0.046700
     25 H3P2        -1.8210    -0.5130    -0.9760 hc         1 FIP       0.046700
     26 H2P1        -0.2820     1.9590    -1.8490 hc         1 FIP       0.033700
     27 H2P2        -1.7040     1.9500    -0.7970 hc         1 FIP       0.033700
     28 H1P1        -3.0390     0.9300    -2.6110 h1         1 FIP       0.037200
     29 H1P2        -1.6170     0.9400    -3.6630 h1         1 FIP       0.037200
@<TRIPOS>BOND
     1     1     2 1
     2     1     5 2
     3     1    11 1
     4     2     3 ar
     5     2     4 ar
     6     3     6 1
     7     3     7 ar
     8     4     8 ar
     9     4    19 1
    10     5     6 1
    11     5    20 1
    12     6    21 1
    13     7     9 ar
    14     7    22 1
    15     8     9 ar
    16     8    10 1
    17     9    23 1
    18    11    12 1
    19    11    24 1
    20    11    25 1
    21    12    13 1
    22    12    26 1
    23    12    27 1
    24    13    18 1
    25    13    28 1
    26    13    29 1
    27    14    15 1
    28    14    16 1
    29    14    17 1
    30    14    18 1
@<TRIPOS>SUBSTRUCTURE
     1 FIP         1 TEMP              0 ****  ****    0 ROOT
