@<TRIPOS>MOLECULE
FIP
   29    30     1     0     0
SMALL
bcc


@<TRIPOS>ATOM
      1 C3          0.1060   -0.1770    0.0380 ce        1 FIP     -0.405500
      2 C9          1.5270   -0.0490    0.0380 ca        1 FIP      0.001200
      3 C8          1.9610   -0.1750    1.4370 ca        1 FIP     -0.148200
      4 C4          2.5010    0.1420   -0.9420 ca        1 FIP     -0.188000
      5 C2         -0.3330   -0.3780    1.3890 c1        1 FIP     -0.116900
      6 N1          0.7950   -0.3730    2.1920 nh        1 FIP     -0.231500
      7 C7          3.3020   -0.1070    1.7870 ca        1 FIP     -0.135000
      8 C5          3.8490    0.2020   -0.5600 ca        1 FIP      0.073900
      9 C6          4.2540    0.0800    0.7850 ca        1 FIP     -0.253000
     10 F           4.8080    0.3820   -1.5150 f         1 FIP     -0.196900
     11 C3P        -0.7740   -0.1710   -1.1360 c3        1 FIP      0.043800
     12 C2P        -0.9740    1.1980   -1.7650 c3        1 FIP     -0.098400
     13 C1P        -1.8320    1.0870   -3.0210 c3        1 FIP      0.187400
     14 P          -3.4710    2.8480   -4.0200 p5        1 FIP      1.429800
     15 OP1        -4.3150    1.6560   -4.2710 o         1 FIP     -0.849000
     16 OP2        -3.3620    4.0190   -4.9130 o         1 FIP     -0.849000
     17 OP3        -3.9460    3.3200   -2.5260 oh        1 FIP     -0.781400
     18 OP4        -1.9530    2.3270   -3.6570 os        1 FIP     -0.585200
     19 H4          2.2150    0.2530   -1.9950 ha        1 FIP      0.130000
     20 H2         -4.2760    2.5910   -2.0150 ho        1 FIP      0.420000
     21 HN1         0.7990   -0.4520    3.1690 hn        1 FIP      0.246700
     22 H7          3.6220   -0.1990    2.8330 ha        1 FIP      0.087000
     23 H6          5.3200    0.1380    1.0350 ha        1 FIP      0.096000
     24 H3P1       -0.3540   -0.8620   -1.9210 hc        1 FIP      0.009700
     25 H3P2       -1.7790   -0.5800   -0.8410 hc        1 FIP      0.009700
     26 H2P1       -1.4650    1.8890   -1.0340 hc        1 FIP      0.040700
     27 H2P2        0.0170    1.6460   -2.0310 hc        1 FIP      0.040700
     28 H1P1       -2.8520    0.6830   -2.7680 h1        1 FIP      0.011200
     29 H1P2       -1.3340    0.3700   -3.7380 h1        1 FIP      0.011200
@<TRIPOS>BOND
     1    1    2 1   
     2    1    5 2   
     3    1   11 1   
     4    2    3 ar  
     5    2    4 ar  
     6    3    6 1   
     7    3    7 ar  
     8    4    8 ar  
     9    4   19 1   
    10    5    6 2   
    11    6   21 1   
    12    7    9 ar  
    13    7   22 1   
    14    8    9 ar  
    15    8   10 1   
    16    9   23 1   
    17   11   12 1   
    18   11   24 1   
    19   11   25 1   
    20   12   13 1   
    21   12   26 1   
    22   12   27 1   
    23   13   18 1   
    24   13   28 1   
    25   13   29 1   
    26   14   15 1   
    27   14   16 1   
    28   14   17 1   
    29   14   18 1   
    30   17   20 1   
@<TRIPOS>SUBSTRUCTURE
     1 FIP         1 TEMP              0 ****  ****    0 ROOT
