@<TRIPOS>MOLECULE
molecule
   31    33     1     0     0
SMALL
bcc


@<TRIPOS>ATOM
      1 O3I          0.0000     0.0000     0.0000 o          1 FIR      -0.599500
      2 O6I          4.2000     0.0020    -1.6140 o          1 FIR      -0.528500
      3 N1I          1.9640     0.0000     1.1200 ns         1 FIR      -0.609900
      4 C2I          1.2150     0.0000     0.0000 c          1 FIR       0.808500
      5 N4           1.9600     0.0000    -1.1110 ns         1 FIR      -0.578500
      6 O10          5.5170    -0.0010     2.6560 os         1 FIR      -0.259900
      7 C16          5.6890    -2.3380     2.5510 ca         1 FIR      -0.100000
      8 C11          5.0750    -1.1620     2.1190 ca         1 FIR       0.085100
      9 C12          4.0720    -1.2330     1.1690 ca         1 FIR      -0.139300
     10 C13          3.7010    -2.4600     0.6440 ca         1 FIR      -0.117000
     11 C14          4.3180    -3.6220     1.0700 ca         1 FIR       0.151900
     12 C15          5.3130    -3.5570     2.0310 ca         1 FIR      -0.115000
     13 C9           4.4980     0.9870     2.6330 c3         1 FIR       0.073100
     14 C5           3.2780     0.0000    -0.8270 c          1 FIR       0.709500
     15 F17          3.9500    -4.8140     0.5510 f          1 FIR      -0.109900
     16 C19          5.0160     2.2620     3.2460 c          1 FIR       0.446100
     17 C7I          3.3630    -0.0010     0.6810 c3         1 FIR       0.071700
     18 C8I          4.0860     1.2480     1.1780 c3         1 FIR      -0.123400
     19 H1I          1.6320    -0.0030     2.0640 hn         1 FIR       0.364500
     20 HN4          1.5850    -0.0000    -2.0390 hn         1 FIR       0.385500
     21 H16          6.4690    -2.2920     3.3020 ha         1 FIR       0.167000
     22 H13          2.9210    -2.5100    -0.1060 ha         1 FIR       0.164000
     23 H15          5.8070    -4.4560     2.3790 ha         1 FIR       0.175000
     24 H9           3.6400     0.6330     3.1920 h1         1 FIR       0.083700
     25 H211         4.4540     3.9840     4.0590 hn         1 FIR       0.491800
     26 H212         3.5350     2.6590     3.5720 hn         1 FIR       0.491800
     27 H8I1         4.9670     1.4280     0.5740 hc         1 FIR       0.082200
     28 H8I2         3.4200     2.1010     1.1320 hc         1 FIR       0.082200
     29 O20          6.1510     2.3130     3.6710 o          1 FIR      -0.344100
     30 H213         4.0540     3.8070     2.4520 hn         1 FIR       0.491800
     31 N21          4.2190     3.3460     3.3250 nz         1 FIR      -0.700400
@<TRIPOS>BOND
     1     1     4 2
     2     2    14 2
     3     3     4 1
     4     3    17 1
     5     3    19 1
     6     4     5 1
     7     5    14 1
     8     5    20 1
     9     6     8 1
    10     6    13 1
    11     7     8 ar
    12     7    12 ar
    13     7    21 1
    14     8     9 ar
    15     9    10 ar
    16     9    17 1
    17    10    11 ar
    18    10    22 1
    19    11    12 ar
    20    11    15 1
    21    12    23 1
    22    13    16 1
    23    13    18 1
    24    13    24 1
    25    14    17 1
    26    29    16 2
    27    31    16 1
    28    31    25 1
    29    31    26 1
    30    17    18 1
    31    18    27 1
    32    18    28 1
    33    30    31 1
@<TRIPOS>SUBSTRUCTURE
     1 FIR         1 TEMP              0 ****  ****    0 ROOT
