@<TRIPOS>MOLECULE
molecule
   31    33     1     0     0
SMALL
bcc


@<TRIPOS>ATOM
      1 O3I          0.0000     0.0000     0.0000 o          1 FIS      -0.601500
      2 O6I          4.2010     0.0020    -1.6150 o          1 FIS      -0.527500
      3 N1I          1.9650     0.0000     1.1200 ns         1 FIS      -0.609900
      4 C2I          1.2160     0.0000     0.0000 c          1 FIS       0.807500
      5 N4           1.9600     0.0000    -1.1130 ns         1 FIS      -0.578500
      6 F17          3.9560     4.8150     0.5470 f          1 FIS      -0.109900
      7 C16          5.6820     2.3400     2.5580 ca         1 FIS      -0.100000
      8 C11          5.0690     1.1630     2.1260 ca         1 FIS       0.085100
      9 C12          4.0730     1.2340     1.1690 ca         1 FIS      -0.139300
     10 C13          3.7050     2.4620     0.6400 ca         1 FIS      -0.117000
     11 C14          4.3200     3.6230     1.0680 ca         1 FIS       0.150900
     12 C15          5.3110     3.5590     2.0340 ca         1 FIS      -0.115000
     13 O10          5.5090     0.0030     2.6680 os         1 FIS      -0.259900
     14 C5           3.2800     0.0010    -0.8270 c          1 FIS       0.709500
     15 C19          5.0110    -2.2620     3.2500 c          1 FIS       0.447100
     16 C7I          3.3650     0.0020     0.6800 c3         1 FIS       0.071700
     17 C8I          4.0880    -1.2480     1.1780 c3         1 FIS      -0.121400
     18 C9           4.4920    -0.9870     2.6360 c3         1 FIS       0.073100
     19 H1I          1.6330     0.0020     2.0640 hn         1 FIS       0.364500
     20 HN4          1.5850    -0.0000    -2.0410 hn         1 FIS       0.385500
     21 H16          6.4580     2.2950     3.3130 ha         1 FIS       0.167000
     22 H13          2.9280     2.5110    -0.1140 ha         1 FIS       0.164000
     23 H15          5.8140     4.4630     2.3540 ha         1 FIS       0.175000
     24 H211         3.9850    -3.8190     2.5780 hn         1 FIS       0.490467
     25 H212         4.4350    -3.9180     4.1760 hn         1 FIS       0.490467
     26 H8I1         4.9730    -1.4240     0.5770 hc         1 FIS       0.084200
     27 H8I2         3.4240    -2.1020     1.1270 hc         1 FIS       0.084200
     28 H9           3.6300    -0.6360     3.1920 h1         1 FIS       0.079700
     29 N21          4.1860    -3.3140     3.4180 nz         1 FIS      -0.697400
     30 H213         3.5080    -2.6160     3.6520 hn         1 FIS       0.490467
     31 O20          6.1720    -2.3410     3.5940 o          1 FIS      -0.344100
@<TRIPOS>BOND
     1     1     4 2
     2     2    14 2
     3     3     4 1
     4     3    16 1
     5     3    19 1
     6     4     5 1
     7     5    14 1
     8     5    20 1
     9     6    11 1
    10     7     8 ar
    11     7    12 ar
    12     7    21 1
    13     8     9 ar
    14     8    13 1
    15     9    10 ar
    16     9    16 1
    17    10    11 ar
    18    10    22 1
    19    11    12 ar
    20    12    23 1
    21    13    18 1
    22    14    16 1
    23    29    15 1
    24    29    24 1
    25    29    25 1
    26    31    15 2
    27    15    18 1
    28    16    17 1
    29    17    18 1
    30    17    26 1
    31    17    27 1
    32    18    28 1
    33    30    29 1
@<TRIPOS>SUBSTRUCTURE
     1 FIS         1 TEMP              0 ****  ****    0 ROOT
