@<TRIPOS>MOLECULE
molecule
   63    66     1     0     0
SMALL
bcc


@<TRIPOS>ATOM
      1 N1           0.0000     0.0000     0.0000 ns         1 FIT      -0.582900
      2 C2           0.1000     0.8900    -2.2700 ce         1 FIT      -0.214200
      3 N2           8.3620     4.5600    -0.9400 ns         1 FIT      -0.579900
      4 C4           1.4610     0.0000     0.0000 c3         1 FIT       0.122700
      5 C5           2.0110     0.0000     1.4250 c3         1 FIT      -0.093400
      6 C6           3.5410    -0.0450     1.3710 c3         1 FIT      -0.072400
      7 O1          -1.8790     0.4880    -1.0940 o          1 FIT      -0.639500
      8 O2           8.1380     4.3680     1.2580 o          1 FIT      -0.617100
      9 C1           1.3680     1.2780    -2.1160 c2         1 FIT      -0.125200
     10 C3          -0.6630     0.4490    -1.0880 c          1 FIT       0.699700
     11 C7           4.0680     1.1720     0.6110 c3         1 FIT      -0.067700
     12 C8           3.4980     1.1740    -0.8180 c3         1 FIT      -0.049700
     13 C9           1.9740     1.2370    -0.7390 c3         1 FIT      -0.048800
     14 C10          4.0330     2.3480    -1.6300 c3         1 FIT      -0.077400
     15 C11          5.5710     2.3660    -1.6420 c3         1 FIT      -0.065400
     16 C12          6.0330     2.4250    -0.1990 c3         1 FIT      -0.060000
     17 C13          5.5780     1.1090     0.4900 c3         1 FIT      -0.064700
     18 C14          6.3580     1.1640     1.8080 c3         1 FIT      -0.075400
     19 C15          7.7560     1.6740     1.3630 c3         1 FIT      -0.071400
     20 C16          7.5400     2.4400     0.0340 c3         1 FIT      -0.137700
     21 C17          5.3910     3.6240     0.5020 c3         1 FIT      -0.102100
     22 C18          1.5670     2.4940     0.0320 c3         1 FIT      -0.088100
     23 C19          8.0350     3.8570     0.1630 c          1 FIT       0.672100
     24 C20          8.8420     5.9380    -0.8160 c3         1 FIT       0.122400
     25 C21         10.1190     5.9590     0.0280 c3         1 FIT      -0.101100
     26 C22          9.1420     6.5010    -2.2070 c3         1 FIT      -0.101100
     27 C23          7.7700     6.7920    -0.1390 c3         1 FIT      -0.101100
     28 HN1         -0.5050    -0.3300     0.7990 hn         1 FIT       0.329500
     29 H2          -0.3000     0.7300    -3.2640 ha         1 FIT       0.158000
     30 HN2          8.3140     4.1270    -1.8410 hn         1 FIT       0.311500
     31 H4           1.8130    -0.8870    -0.5120 h1         1 FIT       0.051700
     32 H5           1.6930     0.9020     1.9350 hc         1 FIT       0.052200
     33 H5A          1.6420    -0.8710     1.9540 hc         1 FIT       0.052200
     34 H6           3.9360    -0.0360     2.3790 hc         1 FIT       0.048200
     35 H6A          3.8560    -0.9480     0.8630 hc         1 FIT       0.048200
     36 H1           1.8750     1.8050    -2.9150 ha         1 FIT       0.140000
     37 H7           3.7770     2.0810     1.1240 hc         1 FIT       0.073700
     38 H8           3.7840     0.2510    -1.3090 hc         1 FIT       0.054700
     39 H10          3.6730     2.2670    -2.6480 hc         1 FIT       0.047700
     40 H10A         3.6730     3.2720    -1.1940 hc         1 FIT       0.047700
     41 H11          5.9240     3.2390    -2.1770 hc         1 FIT       0.042700
     42 H11A         5.9450     1.4630    -2.1100 hc         1 FIT       0.042700
     43 H13          5.8800     0.2500    -0.0970 hc         1 FIT       0.057700
     44 H14          6.4340     0.1760     2.2470 hc         1 FIT       0.049700
     45 H14A         5.8980     1.8630     2.4950 hc         1 FIT       0.049700
     46 H15          8.4230     0.8350     1.2030 hc         1 FIT       0.060700
     47 H15A         8.1630     2.3410     2.1140 hc         1 FIT       0.060700
     48 H16          8.0480     1.9310    -0.7760 hc         1 FIT       0.058700
     49 H17          5.5290     4.5120    -0.1030 hc         1 FIT       0.048700
     50 H17A         5.8570     3.7690     1.4690 hc         1 FIT       0.048700
     51 H17B         4.3320     3.4390     0.6360 hc         1 FIT       0.048700
     52 H18          1.8190     3.3720    -0.5500 hc         1 FIT       0.045700
     53 H18A         0.4990     2.4760     0.2140 hc         1 FIT       0.045700
     54 H18B         2.0940     2.5240     0.9780 hc         1 FIT       0.045700
     55 H21          9.8570     5.9620     1.0790 hc         1 FIT       0.044811
     56 H21A        10.6910     6.8500    -0.2040 hc         1 FIT       0.044811
     57 H21B        10.7130     5.0810    -0.1940 hc         1 FIT       0.044811
     58 H22          9.9170     5.9090    -2.6770 hc         1 FIT       0.044811
     59 H22A         8.2440     6.4660    -2.8120 hc         1 FIT       0.044811
     60 H22B         9.4760     7.5280    -2.1170 hc         1 FIT       0.044811
     61 H23          6.8230     6.6540    -0.6480 hc         1 FIT       0.044811
     62 H23A         8.0560     7.8360    -0.1860 hc         1 FIT       0.044811
     63 H23B         7.6690     6.4920     0.8970 hc         1 FIT       0.044811
@<TRIPOS>BOND
     1     1     4 1
     2     1    10 1
     3     2     9 2
     4     2    10 1
     5     3    23 1
     6     3    24 1
     7     4     5 1
     8     4    13 1
     9     5     6 1
    10     6    11 1
    11     7    10 2
    12     8    23 2
    13     9    13 1
    14    11    12 1
    15    11    17 1
    16    12    13 1
    17    12    14 1
    18    13    22 1
    19    14    15 1
    20    15    16 1
    21    16    17 1
    22    16    20 1
    23    16    21 1
    24    17    18 1
    25    18    19 1
    26    19    20 1
    27    20    23 1
    28    24    25 1
    29    24    26 1
    30    24    27 1
    31     1    28 1
    32     2    29 1
    33     3    30 1
    34     4    31 1
    35     5    32 1
    36     5    33 1
    37     6    34 1
    38     6    35 1
    39     9    36 1
    40    11    37 1
    41    12    38 1
    42    14    39 1
    43    14    40 1
    44    15    41 1
    45    15    42 1
    46    17    43 1
    47    18    44 1
    48    18    45 1
    49    19    46 1
    50    19    47 1
    51    20    48 1
    52    21    49 1
    53    21    50 1
    54    21    51 1
    55    22    52 1
    56    22    53 1
    57    22    54 1
    58    25    55 1
    59    25    56 1
    60    25    57 1
    61    26    58 1
    62    26    59 1
    63    26    60 1
    64    27    61 1
    65    27    62 1
    66    27    63 1
@<TRIPOS>SUBSTRUCTURE
     1 FIT         1 TEMP              0 ****  ****    0 ROOT
