@<TRIPOS>MOLECULE
molecule
   20    21     1     0     0
SMALL
bcc


@<TRIPOS>ATOM
      1 O2           0.0000     0.0000     0.0000 o          1 FIV      -0.835800
      2 C11          1.2160     0.0000     0.0000 c          1 FIV       0.880200
      3 O1           1.8880     0.0000     1.1670 o          1 FIV      -0.835800
      4 C7           1.9540    -0.0070    -1.2780 ca         1 FIV      -0.097600
      5 C8           3.3610    -0.0120    -1.2710 ca         1 FIV      -0.070000
      6 C3           4.0620    -0.0180    -2.4330 ca         1 FIV      -0.172000
      7 C5           1.2570    -0.0120    -2.4760 ca         1 FIV      -0.111000
      8 C2           1.9660    -0.0180    -3.6860 ca         1 FIV      -0.046000
      9 C6           1.2930    -0.0250    -4.9210 ca         1 FIV      -0.109000
     10 C10          2.0110    -0.0320    -6.0780 ca         1 FIV      -0.157000
     11 C9           3.4030    -0.0320    -6.0580 ca         1 FIV      -0.153000
     12 C4           4.0880    -0.0270    -4.8800 ca         1 FIV      -0.120000
     13 C1           3.3840    -0.0190    -3.6660 ca         1 FIV      -0.040000
     14 H2           3.8910    -0.0110    -0.3260 ha         1 FIV       0.155000
     15 H3           5.1450    -0.0220    -2.4110 ha         1 FIV       0.110000
     16 H4           0.1830     0.1270    -2.4780 ha         1 FIV       0.151000
     17 H5           0.2100    -0.0250    -4.9520 ha         1 FIV       0.124000
     18 H6           1.4910    -0.0360    -7.0290 ha         1 FIV       0.107000
     19 H7           3.9510    -0.0380    -6.9930 ha         1 FIV       0.105000
     20 H8           5.1710    -0.0270    -4.8810 ha         1 FIV       0.115000
@<TRIPOS>BOND
     1     1     2 1
     2     3     2 1
     3     2     4 1
     4     4     7 ar
     5     4     5 ar
     6     7     8 ar
     7     5     6 ar
     8     8     9 ar
     9     8    13 ar
    10     6    13 ar
    11     9    10 ar
    12    13    12 ar
    13    10    11 ar
    14    12    11 ar
    15     5    14 1
    16     6    15 1
    17     7    16 1
    18     9    17 1
    19    10    18 1
    20    11    19 1
    21    12    20 1
@<TRIPOS>SUBSTRUCTURE
     1 FIV         1 TEMP              0 ****  ****    0 ROOT
