@<TRIPOS>MOLECULE
FIV
   20    21     1     0     0
SMALL
bcc


@<TRIPOS>ATOM
      1 O2         -0.0650    0.0020    0.0390 o         1 FIV     -0.828800
      2 C11         1.1980    0.0040    0.0740 c         1 FIV      0.907200
      3 O1          1.8820    0.0110    1.1360 o         1 FIV     -0.828800
      4 C7          1.9480   -0.0020   -1.2520 ca        1 FIV     -0.121600
      5 C8          3.3670    0.0010   -1.2480 ca        1 FIV     -0.080000
      6 C3          4.0750   -0.0040   -2.4250 ca        1 FIV     -0.173000
      7 C5          1.2730   -0.0110   -2.4520 ca        1 FIV     -0.112000
      8 C2          1.9770   -0.0170   -3.6850 ca        1 FIV     -0.047000
      9 C6          1.3010   -0.0260   -4.9360 ca        1 FIV     -0.109000
     10 C10         2.0030   -0.0320   -6.1160 ca        1 FIV     -0.161000
     11 C9          3.4180   -0.0280   -6.1030 ca        1 FIV     -0.155000
     12 C4          4.0990   -0.0190   -4.9100 ca        1 FIV     -0.121000
     13 C1          3.3980   -0.0130   -3.6740 ca        1 FIV     -0.043000
     14 H2          3.8680    0.0090   -0.2650 ha        1 FIV      0.156000
     15 H3          5.1750   -0.0010   -2.4240 ha        1 FIV      0.109000
     16 H4          0.1710   -0.0140   -2.4470 ha        1 FIV      0.153000
     17 H5          0.2000   -0.0290   -4.9330 ha        1 FIV      0.124000
     18 H6          1.4790   -0.0390   -7.0810 ha        1 FIV      0.110000
     19 H7          3.9610   -0.0330   -7.0580 ha        1 FIV      0.108000
     20 H8          5.1990   -0.0160   -4.8900 ha        1 FIV      0.114000
@<TRIPOS>BOND
     1    1    2 1   
     2    2    3 1   
     3    2    4 1   
     4    4    5 ar  
     5    4    7 ar  
     6    5    6 ar  
     7    5   14 1   
     8    6   13 ar  
     9    6   15 1   
    10    7    8 ar  
    11    7   16 1   
    12    8    9 ar  
    13    8   13 ar  
    14    9   10 ar  
    15    9   17 1   
    16   10   11 ar  
    17   10   18 1   
    18   11   12 ar  
    19   11   19 1   
    20   12   13 ar  
    21   12   20 1   
@<TRIPOS>SUBSTRUCTURE
     1 FIV         1 TEMP              0 ****  ****    0 ROOT
