@<TRIPOS>MOLECULE
FJ1
   27    28     1     0     0
SMALL
bcc


@<TRIPOS>ATOM
      1 C01         0.0460   -0.1190   -0.0980 c3        1 FJ1     -0.173400
      2 C02         1.5720   -0.0240   -0.0510 c3        1 FJ1     -0.039000
      3 C03         2.0920   -0.0800    1.3940 c3        1 FJ1     -0.020100
      4 C04        -0.5320   -1.3430    0.5720 c         1 FJ1      0.609700
      5 C05         0.1770   -1.7460    1.7750 cc        1 FJ1     -0.296900
      6 C06         1.4080   -1.1510    2.1410 cd        1 FJ1     -0.049600
      7 N07         1.8040   -1.7730    3.3230 na        1 FJ1      0.006400
      8 N08         0.9350   -2.6980    3.7260 nd        1 FJ1     -0.461800
      9 C09        -0.0790   -2.7200    2.8120 cc        1 FJ1      0.274600
     10 C10         1.9910    1.3100   -0.6560 c3        1 FJ1     -0.094600
     11 C11         2.1860   -1.1530   -0.8650 c3        1 FJ1     -0.094600
     12 O12        -1.5340   -1.9140    0.1310 o         1 FJ1     -0.510100
     13 C13        -1.2760   -3.6500    2.9090 c3        1 FJ1      0.633600
     14 F14        -1.3150   -4.5980    1.9190 f         1 FJ1     -0.223633
     15 F15        -1.3560   -4.3750    4.0720 f         1 FJ1     -0.223633
     16 F16        -2.4830   -3.0030    2.8360 f         1 FJ1     -0.223633
     17 H1         -0.2890   -0.1000   -1.1690 hc        1 FJ1      0.077700
     18 H2         -0.3980    0.7770    0.4150 hc        1 FJ1      0.077700
     19 H3          3.2040   -0.2370    1.3830 hc        1 FJ1      0.067200
     20 H4          1.8910    0.9040    1.9020 hc        1 FJ1      0.067200
     21 H5          2.6290   -1.6000    3.8520 hn        1 FJ1      0.334700
     22 H6          1.6640    1.3670   -1.7220 hc        1 FJ1      0.043533
     23 H7          1.5300    2.1590   -0.0970 hc        1 FJ1      0.043533
     24 H8          3.1020    1.4170   -0.6180 hc        1 FJ1      0.043533
     25 H9          3.2990   -1.0670   -0.8720 hc        1 FJ1      0.043533
     26 H10         1.8200   -1.1110   -1.9190 hc        1 FJ1      0.043533
     27 H11         1.9030   -2.1420   -0.4290 hc        1 FJ1      0.043533
@<TRIPOS>BOND
     1    1    2 1   
     2    1    4 1   
     3    1   17 1   
     4    1   18 1   
     5    2    3 1   
     6    2   10 1   
     7    2   11 1   
     8    3    6 1   
     9    3   19 1   
    10    3   20 1   
    11    4    5 1   
    12    4   12 2   
    13    5    6 2   
    14    5    9 1   
    15    6    7 1   
    16    7    8 1   
    17    7   21 1   
    18    8    9 2   
    19    9   13 1   
    20   10   22 1   
    21   10   23 1   
    22   10   24 1   
    23   11   25 1   
    24   11   26 1   
    25   11   27 1   
    26   13   14 1   
    27   13   15 1   
    28   13   16 1   
@<TRIPOS>SUBSTRUCTURE
     1 FJ1         1 TEMP              0 ****  ****    0 ROOT
