@<TRIPOS>MOLECULE
molecule
   27    28     1     0     0
SMALL
bcc


@<TRIPOS>ATOM
      1 C01          0.0000     0.0000     0.0000 c3         1 FJ1      -0.164400
      2 C02          1.5320     0.0000     0.0000 c3         1 FJ1      -0.062000
      3 C03          2.0740     0.0000     1.4330 c3         1 FJ1      -0.012100
      4 C04         -0.4810    -1.3070     0.6140 c          1 FJ1       0.609700
      5 C05          0.2490    -1.7380     1.8160 cc         1 FJ1      -0.368900
      6 C06          1.4400    -1.1280     2.2020 cd         1 FJ1      -0.030600
      7 N07          1.8470    -1.7340     3.3160 na         1 FJ1      -0.004600
      8 N08          0.9190    -2.7340     3.6450 nc         1 FJ1      -0.469800
      9 C09         -0.0370    -2.7410     2.7510 cd         1 FJ1       0.310600
     10 C10          2.0350     1.2470    -0.7290 c3         1 FJ1      -0.089600
     11 C11          2.0360    -1.2480    -0.7290 c3         1 FJ1      -0.089600
     12 O12         -1.4000    -1.9460     0.1460 o          1 FJ1      -0.511100
     13 C13         -1.2300    -3.6610     2.7320 c3         1 FJ1       0.619600
     14 F14         -1.1640    -4.4870     1.6040 f          1 FJ1      -0.207967
     15 F15         -1.2300    -4.4490     3.8870 f          1 FJ1      -0.207967
     16 F16         -2.4040    -2.9010     2.6850 f          1 FJ1      -0.207967
     17 H1          -0.3630     0.0790    -1.0170 hc         1 FJ1       0.074200
     18 H2          -0.3630     0.8340     0.5890 hc         1 FJ1       0.074200
     19 H3           1.7860     0.9330     1.9030 hc         1 FJ1       0.068700
     20 H4           3.1420    -0.1770     1.3910 hc         1 FJ1       0.068700
     21 H5           2.6760    -1.5130     3.8320 hn         1 FJ1       0.338700
     22 H6           1.6030     2.1300    -0.2750 hc         1 FJ1       0.043533
     23 H7           1.7440     1.1980    -1.7720 hc         1 FJ1       0.043533
     24 H8           3.1150     1.2970    -0.6580 hc         1 FJ1       0.043533
     25 H9           1.8700    -2.1200    -0.1080 hc         1 FJ1       0.043533
     26 H10          1.4990    -1.3620    -1.6630 hc         1 FJ1       0.043533
     27 H11          3.0950    -1.1440    -0.9320 hc         1 FJ1       0.043533
@<TRIPOS>BOND
     1    14    13 1
     2    16    13 1
     3    13     9 1
     4    13    15 1
     5     8     9 2
     6     8     7 1
     7     9     5 1
     8     7     6 1
     9     5     6 2
    10     5     4 1
    11     6     3 1
    12    12     4 2
    13     4     1 1
    14     3     2 1
    15     1     2 1
    16     2    10 1
    17     2    11 1
    18     1    17 1
    19     1    18 1
    20     3    19 1
    21     3    20 1
    22     7    21 1
    23    10    22 1
    24    10    23 1
    25    10    24 1
    26    11    25 1
    27    11    26 1
    28    11    27 1
@<TRIPOS>SUBSTRUCTURE
     1 FJ1         1 TEMP              0 ****  ****    0 ROOT
