@<TRIPOS>MOLECULE
FJ2
   41    43     1     0     0
SMALL
bcc


@<TRIPOS>ATOM
      1 C01         0.0910    0.1880   -0.0680 ca        1 FJ2      0.188100
      2 C02         1.0180   -0.8260    0.2150 ca        1 FJ2     -0.253000
      3 C03         1.6890   -0.8160    1.4440 ca        1 FJ2      0.192100
      4 C04         1.4450    0.1970    2.3980 ca        1 FJ2     -0.188500
      5 C05         0.5170    1.1970    2.0980 ca        1 FJ2     -0.022000
      6 C06        -0.1620    1.2000    0.8780 ca        1 FJ2     -0.112600
      7 O07         2.5860   -1.7960    1.7820 oh        1 FJ2     -0.474100
      8 O08        -0.5210    0.1080   -1.2900 oh        1 FJ2     -0.487100
      9 CL9        -1.2860    2.4360    0.5530 cl        1 FJ2     -0.089400
     10 C10         2.1620    0.2280    3.6640 cc        1 FJ2      0.420800
     11 N11         3.5040    0.3280    3.7830 nd        1 FJ2     -0.348300
     12 O12         3.8410    0.3440    5.0570 os        1 FJ2     -0.083100
     13 C13         2.6710    0.2560    5.8580 cd        1 FJ2      0.391600
     14 C14         1.5650    0.1810    5.0000 cc        1 FJ2     -0.323600
     15 C15         0.1800    0.0570    5.3730 ca        1 FJ2     -0.035000
     16 N16         2.7680    0.2460    7.2270 n         1 FJ2     -0.546400
     17 C17         3.9620    0.3230    7.9580 c         1 FJ2      0.663100
     18 C18         3.8220    0.2290    9.4560 c3        1 FJ2     -0.176100
     19 O19         5.0540    0.4680    7.3950 o         1 FJ2     -0.531100
     20 C20        -0.6380   -0.9110    4.7650 ca        1 FJ2     -0.094500
     21 C21        -1.9680   -1.0500    5.1340 ca        1 FJ2     -0.178000
     22 C22        -2.5000   -0.2100    6.1320 ca        1 FJ2      0.125100
     23 C23        -1.7000    0.7600    6.7450 ca        1 FJ2     -0.178000
     24 C24        -0.3670    0.8870    6.3600 ca        1 FJ2     -0.094500
     25 O25        -3.8290   -0.4350    6.4320 os        1 FJ2     -0.324900
     26 C26        -4.4120    0.4350    7.3950 c3        1 FJ2      0.112700
     27 H1          1.2070   -1.6090   -0.5320 ha        1 FJ2      0.160000
     28 H2          0.3220    1.9920    2.8370 ha        1 FJ2      0.162000
     29 H3          2.7140   -2.3680    1.0090 ho        1 FJ2      0.427000
     30 H4         -1.1300    0.8600   -1.3800 ho        1 FJ2      0.435000
     31 H5          1.9060    0.1060    7.7090 hn        1 FJ2      0.339500
     32 H6          4.8390    0.3140    9.9120 hc        1 FJ2      0.073367
     33 H7          3.1790    1.0550    9.8450 hc        1 FJ2      0.073367
     34 H8          3.3750   -0.7520    9.7480 hc        1 FJ2      0.073367
     35 H9         -0.2140   -1.5620    3.9840 ha        1 FJ2      0.139000
     36 H10        -2.6140   -1.8050    4.6620 ha        1 FJ2      0.145000
     37 H11        -2.1080    1.4250    7.5180 ha        1 FJ2      0.145000
     38 H12         0.2560    1.6650    6.8280 ha        1 FJ2      0.139000
     39 H13        -5.4740    0.0860    7.4510 h1        1 FJ2      0.045033
     40 H14        -3.9070    0.3200    8.3850 h1        1 FJ2      0.045033
     41 H15        -4.3620    1.4960    7.0510 h1        1 FJ2      0.045033
@<TRIPOS>BOND
     1    1    2 ar
     2    1    6 ar
     3    1    8 1
     4    2    3 ar
     5    2   27 1
     6    3    4 ar
     7    3    7 1
     8    4    5 ar
     9    4   10 1
    10    5    6 ar
    11    5   28 1
    12    6    9 1
    13    7   29 1
    14    8   30 1
    15   10   11 2
    16   10   14 1
    17   11   12 1
    18   12   13 1
    19   13   14 2
    20   13   16 1
    21   14   15 1
    22   15   20 ar
    23   15   24 ar
    24   16   17 1
    25   16   31 1
    26   17   18 1
    27   17   19 2
    28   18   32 1
    29   18   33 1
    30   18   34 1
    31   20   21 ar
    32   20   35 1
    33   21   22 ar
    34   21   36 1
    35   22   23 ar
    36   22   25 1
    37   23   24 ar
    38   23   37 1
    39   24   38 1
    40   25   26 1
    41   26   39 1
    42   26   40 1
    43   26   41 1
@<TRIPOS>SUBSTRUCTURE
     1 FJ2         1 TEMP              0 ****  ****    0 ROOT
