@<TRIPOS>MOLECULE
FJ3
   31    32     1     0     0
SMALL
bcc


@<TRIPOS>ATOM
      1 C01        -0.0080   -0.1110   -0.0180 ca        1 FJ3      0.177100
      2 C02         1.3880   -0.1990   -0.0490 ca        1 FJ3     -0.310000
      3 C03         2.1040   -0.2110    1.1560 ca        1 FJ3      0.184100
      4 C04         1.4340   -0.1390    2.3960 ca        1 FJ3     -0.188500
      5 C05         0.0340   -0.0530    2.3870 ca        1 FJ3     -0.034000
      6 C06        -0.7070   -0.0360    1.2050 ca        1 FJ3     -0.133300
      7 C07        -2.2000    0.0580    1.2370 c3        1 FJ3     -0.015400
      8 O08        -0.7500   -0.0940   -1.1750 oh        1 FJ3     -0.491100
      9 O09         3.4760   -0.2940    1.1600 oh        1 FJ3     -0.492100
     10 C10         2.1520   -0.1490    3.6590 cc        1 FJ3      0.418800
     11 N11         1.6350   -0.5510    4.8450 nd        1 FJ3     -0.389300
     12 O12         2.5470   -0.4230    5.7880 os        1 FJ3     -0.144100
     13 C13         3.7520    0.1060    5.2230 cd        1 FJ3      0.454600
     14 C14         3.5300    0.2870    3.8620 cc        1 FJ3     -0.397600
     15 N15         4.7880    0.3980    6.0800 nh        1 FJ3     -0.896500
     16 C16        -2.8040   -1.1370    1.9510 c3        1 FJ3     -0.088600
     17 C17        -2.6490    1.3510    1.8930 c3        1 FJ3     -0.088600
     18 H1          1.9200   -0.2590   -1.0080 ha        1 FJ3      0.136000
     19 H2         -0.5080    0.0040    3.3470 ha        1 FJ3      0.160000
     20 H3         -2.5820    0.0580    0.1740 hc        1 FJ3      0.069700
     21 H4         -0.1390   -0.1520   -1.9250 ho        1 FJ3      0.421000
     22 H5          3.7730   -0.3920    0.2430 ho        1 FJ3      0.420000
     23 H6          4.2030    0.6620    3.0990 ha        1 FJ3      0.187000
     24 H7          5.6870    0.2480    5.6760 hn        1 FJ3      0.409800
     25 H8          4.6840    0.0140    6.9950 hn        1 FJ3      0.409800
     26 H9         -2.4680   -1.1740    3.0150 hc        1 FJ3      0.036367
     27 H10        -2.4980   -2.0850    1.4490 hc        1 FJ3      0.036367
     28 H11        -3.9180   -1.0660    1.9330 hc        1 FJ3      0.036367
     29 H12        -2.2260    2.2300    1.3510 hc        1 FJ3      0.036367
     30 H13        -3.7630    1.4200    1.8720 hc        1 FJ3      0.036367
     31 H14        -2.3110    1.3930    2.9570 hc        1 FJ3      0.036367
@<TRIPOS>BOND
     1    1    2 ar  
     2    1    6 ar  
     3    1    8 1   
     4    2    3 ar  
     5    2   18 1   
     6    3    4 ar  
     7    3    9 1   
     8    4    5 ar  
     9    4   10 1   
    10    5    6 ar  
    11    5   19 1   
    12    6    7 1   
    13    7   16 1   
    14    7   17 1   
    15    7   20 1   
    16    8   21 1   
    17    9   22 1   
    18   10   11 2   
    19   10   14 1   
    20   11   12 1   
    21   12   13 1   
    22   13   14 2   
    23   13   15 1   
    24   14   23 1   
    25   15   24 1   
    26   15   25 1   
    27   16   26 1   
    28   16   27 1   
    29   16   28 1   
    30   17   29 1   
    31   17   30 1   
    32   17   31 1   
@<TRIPOS>SUBSTRUCTURE
     1 FJ3         1 TEMP              0 ****  ****    0 ROOT
