@<TRIPOS>MOLECULE
FJ4
   33    34     1     0     0
SMALL
bcc


@<TRIPOS>ATOM
      1 C01        -0.6900   -0.3180    0.8410 ca        1 FJ4     -0.254000
      2 C02         0.5500   -0.9060    0.5550 ca        1 FJ4      0.195100
      3 C03         1.6560   -0.6690    1.3940 ca        1 FJ4     -0.116600
      4 C04        -0.8110    0.5100    1.9630 ca        1 FJ4      0.209100
      5 C05         0.2910    0.7530    2.8130 ca        1 FJ4     -0.216600
      6 C06         1.5140    0.1540    2.5120 ca        1 FJ4     -0.025000
      7 C07         0.5770    1.0510    5.3170 c3        1 FJ4     -0.124100
      8 C08         0.1630    1.6420    3.9900 c         1 FJ4      0.599700
      9 O09        -0.2390    2.8050    3.8980 o         1 FJ4     -0.508100
     10 O10        -2.0000    1.1010    2.2980 oh        1 FJ4     -0.471100
     11 O11         0.5890   -1.6990   -0.5610 oh        1 FJ4     -0.485100
     12 C12        -0.5910    0.5260    6.0750 ca        1 FJ4     -0.116300
     13 C13        -1.6690    1.3720    6.3790 ca        1 FJ4     -0.086500
     14 C14        -2.7480    0.9060    7.1160 ca        1 FJ4     -0.179500
     15 C15        -2.7540   -0.4310    7.5580 ca        1 FJ4      0.126100
     16 C16        -1.6870   -1.2850    7.2600 ca        1 FJ4     -0.179500
     17 C17        -0.6110   -0.7980    6.5170 ca        1 FJ4     -0.086500
     18 O18        -3.8710   -0.7960    8.2840 os        1 FJ4     -0.326900
     19 C19        -3.9060   -2.1410    8.7480 c3        1 FJ4      0.113700
     20 CL          3.1700   -1.3720    1.0620 cl        1 FJ4     -0.088400
     21 H1         -1.5460   -0.5120    0.1790 ha        1 FJ4      0.162000
     22 H2          2.3860    0.3420    3.1610 ha        1 FJ4      0.153000
     23 H3          1.3310    0.2370    5.1500 hc        1 FJ4      0.068700
     24 H4          1.0720    1.8590    5.9250 hc        1 FJ4      0.068700
     25 H5         -2.6550    0.8750    1.6180 ho        1 FJ4      0.429000
     26 H6          1.4920   -2.0410   -0.6660 ho        1 FJ4      0.436000
     27 H7         -1.6540    2.4130    6.0160 ha        1 FJ4      0.142500
     28 H8         -3.5980    1.5600    7.3580 ha        1 FJ4      0.144000
     29 H9         -1.6840   -2.3300    7.5990 ha        1 FJ4      0.144000
     30 H10         0.2270   -1.4710    6.2810 ha        1 FJ4      0.142500
     31 H11        -4.8790   -2.2010    9.2980 h1        1 FJ4      0.044033
     32 H12        -3.8940   -2.8550    7.8890 h1        1 FJ4      0.044033
     33 H13        -3.0510   -2.3430    9.4380 h1        1 FJ4      0.044033
@<TRIPOS>BOND
     1    1    2 ar  
     2    1    4 ar  
     3    1   21 1   
     4    2    3 ar  
     5    2   11 1   
     6    3    6 ar  
     7    3   20 1   
     8    4    5 ar  
     9    4   10 1   
    10    5    6 ar  
    11    5    8 1   
    12    6   22 1   
    13    7    8 1   
    14    7   12 1   
    15    7   23 1   
    16    7   24 1   
    17    8    9 2   
    18   10   25 1   
    19   11   26 1   
    20   12   13 ar  
    21   12   17 ar  
    22   13   14 ar  
    23   13   27 1   
    24   14   15 ar  
    25   14   28 1   
    26   15   16 ar  
    27   15   18 1   
    28   16   17 ar  
    29   16   29 1   
    30   17   30 1   
    31   18   19 1   
    32   19   31 1   
    33   19   32 1   
    34   19   33 1   
@<TRIPOS>SUBSTRUCTURE
     1 FJ4         1 TEMP              0 ****  ****    0 ROOT
