@<TRIPOS>MOLECULE
molecule
   33    34     1     0     0
SMALL
bcc


@<TRIPOS>ATOM
      1 C01          0.0000     0.0000     0.0000 ca         1 FJ4      -0.231000
      2 C02          1.3870     0.0000     0.0000 ca         1 FJ4       0.165100
      3 C03          2.0910     0.0000     1.2020 ca         1 FJ4      -0.030600
      4 C04         -0.6910     0.0060     1.1980 ca         1 FJ4       0.192100
      5 C05          0.0220     0.0120     2.4110 ca         1 FJ4      -0.202600
      6 C06          1.4230     0.0010     2.3940 ca         1 FJ4      -0.057000
      7 C07          0.0690    -0.0000     4.9850 c3         1 FJ4      -0.124100
      8 C08         -0.6980     0.0120     3.6880 c          1 FJ4       0.568700
      9 O09         -1.9110     0.0220     3.7000 o          1 FJ4      -0.484100
     10 O10         -2.0470     0.0060     1.2040 oh         1 FJ4      -0.477100
     11 O11          2.0630    -0.0010    -1.1770 oh         1 FJ4      -0.509100
     12 C12         -0.8990     0.0030     6.1400 ca         1 FJ4      -0.114300
     13 C13         -1.3360     1.2010     6.6710 ca         1 FJ4      -0.075500
     14 C14         -2.2230     1.2070     7.7300 ca         1 FJ4      -0.186000
     15 C15         -2.6740     0.0070     8.2610 ca         1 FJ4       0.144100
     16 C16         -2.2350    -1.1950     7.7270 ca         1 FJ4      -0.186000
     17 C17         -1.3510    -1.1940     6.6640 ca         1 FJ4      -0.075500
     18 O18         -3.5470     0.0100     9.3040 os         1 FJ4      -0.329900
     19 C19         -3.9680    -1.2620     9.7990 c3         1 FJ4       0.128700
     20 Cl           3.8270    -0.0000     1.1870 cl         1 FJ4      -0.087400
     21 H1          -0.5420    -0.0020    -0.9380 ha         1 FJ4       0.156000
     22 H2           1.9760     0.0030     3.3250 ha         1 FJ4       0.155000
     23 H3           0.7000     0.8780     5.0400 hc         1 FJ4       0.068700
     24 H4           0.6840    -0.8910     5.0320 hc         1 FJ4       0.068700
     25 H5          -2.3640     0.7120     0.6660 ho         1 FJ4       0.428000
     26 H6           2.1060    -0.8800    -1.5140 ho         1 FJ4       0.432000
     27 H7          -0.9830     2.1380     6.2560 ha         1 FJ4       0.130500
     28 H8          -2.5650     2.1470     8.1460 ha         1 FJ4       0.139500
     29 H9          -2.5870    -2.1330     8.1380 ha         1 FJ4       0.139500
     30 H10         -1.0070    -2.1330     6.2460 ha         1 FJ4       0.130500
     31 H11         -3.1060    -1.8200    10.1420 h1         1 FJ4       0.041033
     32 H12         -4.6560    -1.1190    10.6240 h1         1 FJ4       0.041033
     33 H13         -4.4630    -1.8120     9.0070 h1         1 FJ4       0.041033
@<TRIPOS>BOND
     1     9     8 2
     2     7    12 1
     3     7     8 1
     4    12    17 ar
     5    12    13 ar
     6    17    16 ar
     7     8     5 1
     8    13    14 ar
     9    16    15 ar
    10    14    15 ar
    11    15    18 1
    12    18    19 1
    13     5     6 ar
    14     5     4 ar
    15    10     4 1
    16     6     3 ar
    17     4     1 ar
    18     3    20 1
    19     3     2 ar
    20     1     2 ar
    21     2    11 1
    22     1    21 1
    23     6    22 1
    24     7    23 1
    25     7    24 1
    26    10    25 1
    27    11    26 1
    28    13    27 1
    29    14    28 1
    30    16    29 1
    31    17    30 1
    32    19    31 1
    33    19    32 1
    34    19    33 1
@<TRIPOS>SUBSTRUCTURE
     1 FJ4         1 TEMP              0 ****  ****    0 ROOT
