@<TRIPOS>MOLECULE
FJ5
   66    70     1     0     0
SMALL
bcc


@<TRIPOS>ATOM
      1 C01         0.0660   -0.0460    0.0270 ca        1 FJ5     -0.195500
      2 C02         1.4350    0.2410    0.0180 ca        1 FJ5     -0.034000
      3 C03         2.1940    0.2670    1.1890 ca        1 FJ5     -0.133300
      4 C04         1.5400   -0.0040    2.4090 ca        1 FJ5      0.176100
      5 C05         0.1710   -0.2970    2.4530 ca        1 FJ5     -0.310000
      6 C06        -0.5620   -0.3160    1.2600 ca        1 FJ5      0.188100
      7 O07        -1.9000   -0.6200    1.2370 oh        1 FJ5     -0.478100
      8 O08         2.3000    0.0270    3.5550 oh        1 FJ5     -0.493100
      9 C09         3.6550    0.5830    1.1490 c3        1 FJ5     -0.014400
     10 C10        -0.6930   -0.0290   -1.2150 cc        1 FJ5      0.427800
     11 C11         4.4120   -0.4480    0.3320 c3        1 FJ5     -0.088100
     12 C12         3.8960    1.9760    0.5980 c3        1 FJ5     -0.088100
     13 N13        -1.6920    0.8370   -1.4890 nd        1 FJ5     -0.353300
     14 O14        -2.1700    0.6040   -2.6960 os        1 FJ5     -0.084100
     15 C15        -1.4590   -0.4740   -3.2870 cd        1 FJ5      0.397600
     16 C16        -0.4960   -0.9130   -2.3660 cc        1 FJ5     -0.333600
     17 C17         0.4320   -2.0010   -2.5250 ca        1 FJ5      0.009000
     18 C18         0.6310   -2.9240   -1.4870 ca        1 FJ5     -0.132500
     19 C19         1.5080   -3.9930   -1.6510 ca        1 FJ5     -0.115000
     20 C20         2.2040   -4.1600   -2.8520 ca        1 FJ5     -0.090300
     21 C21         2.0150   -3.2380   -3.8870 ca        1 FJ5     -0.115000
     22 C22         1.1380   -2.1690   -3.7260 ca        1 FJ5     -0.132500
     23 C23         3.1870   -5.2840   -3.0000 c3        1 FJ5      0.214100
     24 N24         2.9790   -6.0960   -4.1940 n3        1 FJ5     -0.725600
     25 N25        -1.7850   -0.9120   -4.5460 n         1 FJ5     -0.539400
     26 C26        -2.7940   -0.3670   -5.3540 c         1 FJ5      0.695100
     27 O27        -3.4500    0.6150   -4.9780 o         1 FJ5     -0.540100
     28 C28        -3.0090   -1.0350   -6.6740 cx        1 FJ5     -0.231700
     29 C29        -4.4260   -1.0920   -7.2000 cx        1 FJ5     -0.098400
     30 C30        -3.4390   -0.1620   -7.8310 cx        1 FJ5     -0.098400
     31 C31         1.7020   -6.7970   -4.1810 c3        1 FJ5      0.130300
     32 C32         1.5220   -7.7050   -5.4020 c3        1 FJ5      0.126900
     33 O33         2.6190   -8.6000   -5.5580 os        1 FJ5     -0.415600
     34 C34         3.8630   -7.9150   -5.6380 c3        1 FJ5      0.126900
     35 C35         4.0940   -7.0080   -4.4240 c3        1 FJ5      0.130300
     36 H1          1.9280    0.4550   -0.9460 ha        1 FJ5      0.151000
     37 H2         -0.3240   -0.5040    3.4110 ha        1 FJ5      0.137000
     38 H3         -2.2110   -0.6790    2.1530 ho        1 FJ5      0.421000
     39 H4          1.7170   -0.1530    4.3080 ho        1 FJ5      0.421000
     40 H5          4.0580    0.5530    2.2040 hc        1 FJ5      0.070700
     41 H6          4.0610   -0.4490   -0.7280 hc        1 FJ5      0.035867
     42 H7          4.2610   -1.4690    0.7570 hc        1 FJ5      0.035867
     43 H8          5.5040   -0.2140    0.3430 hc        1 FJ5      0.035867
     44 H9          3.3600    2.7360    1.2160 hc        1 FJ5      0.035867
     45 H10         3.5310    2.0540   -0.4540 hc        1 FJ5      0.035867
     46 H11         4.9880    2.2080    0.6140 hc        1 FJ5      0.035867
     47 H12         0.0890   -2.7940   -0.5370 ha        1 FJ5      0.138000
     48 H13         1.6510   -4.7090   -0.8270 ha        1 FJ5      0.139000
     49 H14         2.5660   -3.3610   -4.8330 ha        1 FJ5      0.139000
     50 H15         1.0210   -1.4370   -4.5390 ha        1 FJ5      0.138000
     51 H16         3.1680   -5.9170   -2.0630 h1        1 FJ5      0.041200
     52 H17         4.2190   -4.8300   -3.0790 h1        1 FJ5      0.041200
     53 H19        -1.2820   -1.7140   -4.8580 hn        1 FJ5      0.341500
     54 H20        -2.3410   -1.8910   -6.8900 hc        1 FJ5      0.091700
     55 H21        -4.7450   -2.0010   -7.7390 hc        1 FJ5      0.087200
     56 H22        -5.2330   -0.6640   -6.5750 hc        1 FJ5      0.087200
     57 H23        -3.0360   -0.3900   -8.8340 hc        1 FJ5      0.087200
     58 H24        -3.5460    0.9250   -7.6540 hc        1 FJ5      0.087200
     59 H25         1.5830   -7.4260   -3.2510 h1        1 FJ5      0.042700
     60 H26         0.8880   -6.0210   -4.1820 h1        1 FJ5      0.042700
     61 H27         1.4000   -7.0970   -6.3370 h1        1 FJ5      0.053200
     62 H28         0.6340   -8.3750   -5.2590 h1        1 FJ5      0.053200
     63 H29         3.9020   -7.3210   -6.5890 h1        1 FJ5      0.053200
     64 H30         4.6310   -8.7320   -5.6610 h1        1 FJ5      0.053200
     65 H31         5.0140   -6.3880   -4.6120 h1        1 FJ5      0.042700
     66 H32         4.2910   -7.6600   -3.5240 h1        1 FJ5      0.042700
@<TRIPOS>BOND
     1    1    2 ar
     2    1    6 ar
     3    1   10 1
     4    2    3 ar
     5    2   36 1
     6    3    4 ar
     7    3    9 1
     8    4    5 ar
     9    4    8 1
    10    5    6 ar
    11    5   37 1
    12    6    7 1
    13    7   38 1
    14    8   39 1
    15    9   11 1
    16    9   12 1
    17    9   40 1
    18   10   13 2
    19   10   16 1
    20   11   41 1
    21   11   42 1
    22   11   43 1
    23   12   44 1
    24   12   45 1
    25   12   46 1
    26   13   14 1
    27   14   15 1
    28   15   16 2
    29   15   25 1
    30   16   17 1
    31   17   18 ar
    32   17   22 ar
    33   18   19 ar
    34   18   47 1
    35   19   20 ar
    36   19   48 1
    37   20   21 ar
    38   20   23 1
    39   21   22 ar
    40   21   49 1
    41   22   50 1
    42   23   24 1
    43   23   51 1
    44   23   52 1
    45   24   31 1
    46   24   35 1
    47   25   26 1
    48   25   53 1
    49   26   27 2
    50   26   28 1
    51   28   29 1
    52   28   30 1
    53   28   54 1
    54   29   30 1
    55   29   55 1
    56   29   56 1
    57   30   57 1
    58   30   58 1
    59   31   32 1
    60   31   59 1
    61   31   60 1
    62   32   33 1
    63   32   61 1
    64   32   62 1
    65   33   34 1
    66   34   35 1
    67   34   63 1
    68   34   64 1
    69   35   65 1
    70   35   66 1
@<TRIPOS>SUBSTRUCTURE
     1 FJ5         1 TEMP              0 ****  ****    0 ROOT
