@<TRIPOS>MOLECULE
FJ6
   54    57     1     0     0
SMALL
bcc


@<TRIPOS>ATOM
      1 C01         0.0450   -0.1060   -0.0130 ca        1 FJ6     -0.194500
      2 C02         1.4230    0.1340   -0.0150 ca        1 FJ6     -0.034000
      3 C03         2.1750    0.1420    1.1610 ca        1 FJ6     -0.133300
      4 C04         1.5050   -0.1000    2.3790 ca        1 FJ6      0.175100
      5 C05         0.1270   -0.3480    2.4150 ca        1 FJ6     -0.310000
      6 C06        -0.5990   -0.3490    1.2170 ca        1 FJ6      0.188100
      7 O07        -1.9460   -0.6110    1.1880 oh        1 FJ6     -0.478100
      8 O08         2.2580   -0.0880    3.5290 oh        1 FJ6     -0.493100
      9 C09         3.6460    0.4090    1.1290 c3        1 FJ6     -0.014400
     10 C10        -0.7050   -0.0700   -1.2600 cc        1 FJ6      0.425800
     11 C11         4.3740   -0.6520    0.3230 c3        1 FJ6     -0.088100
     12 C12         3.9360    1.7900    0.5700 c3        1 FJ6     -0.088100
     13 N13        -1.6920    0.8090   -1.5340 nd        1 FJ6     -0.354300
     14 O14        -2.1620    0.5930   -2.7470 os        1 FJ6     -0.084100
     15 C15        -1.4590   -0.4880   -3.3410 cd        1 FJ6      0.391600
     16 C16        -0.5080   -0.9460   -2.4170 cc        1 FJ6     -0.325600
     17 C17         0.4090   -2.0420   -2.5820 ca        1 FJ6     -0.032000
     18 C18         1.1530   -2.1760   -3.7680 ca        1 FJ6     -0.094500
     19 C19         2.0200   -3.2450   -3.9480 ca        1 FJ6     -0.178500
     20 C20         2.1550   -4.2020   -2.9250 ca        1 FJ6      0.123100
     21 C21         1.4280   -4.0800   -1.7350 ca        1 FJ6     -0.178500
     22 C22         0.5610   -3.0020   -1.5720 ca        1 FJ6     -0.094500
     23 O23         3.0350   -5.2290   -3.2050 os        1 FJ6     -0.327900
     24 C24         3.2200   -6.1950   -2.1770 c3        1 FJ6      0.113700
     25 N25        -1.7770   -0.9100   -4.6090 n         1 FJ6     -0.539400
     26 C26        -2.7700   -0.3470   -5.4220 c         1 FJ6      0.695100
     27 O27        -3.4150    0.6430   -5.0480 o         1 FJ6     -0.541100
     28 C28        -2.9820   -1.0040   -6.7490 cx        1 FJ6     -0.231700
     29 C29        -3.3960   -0.1190   -7.9030 cx        1 FJ6     -0.098400
     30 C30        -4.3960   -1.0420   -7.2840 cx        1 FJ6     -0.098400
     31 H1          1.9290    0.3260   -0.9760 ha        1 FJ6      0.151000
     32 H2         -0.3810   -0.5330    3.3710 ha        1 FJ6      0.137000
     33 H3         -2.2650   -0.6500    2.1020 ho        1 FJ6      0.421000
     34 H4          1.6640   -0.2410    4.2790 ho        1 FJ6      0.421000
     35 H5          4.0410    0.3730    2.1870 hc        1 FJ6      0.069700
     36 H6          4.1870   -1.6640    0.7540 hc        1 FJ6      0.035867
     37 H7          4.0290   -0.6490   -0.7390 hc        1 FJ6      0.035867
     38 H8          5.4730   -0.4540    0.3400 hc        1 FJ6      0.035867
     39 H9          3.4220    2.5710    1.1800 hc        1 FJ6      0.035867
     40 H10         3.5810    1.8730   -0.4850 hc        1 FJ6      0.035867
     41 H11         5.0350    1.9850    0.5920 hc        1 FJ6      0.035867
     42 H12         1.0650   -1.4130   -4.5560 ha        1 FJ6      0.139500
     43 H13         2.6060   -3.3530   -4.8710 ha        1 FJ6      0.144000
     44 H14         1.5310   -4.8190   -0.9290 ha        1 FJ6      0.144000
     45 H15        -0.0110   -2.8970   -0.6370 ha        1 FJ6      0.139500
     46 H16         2.2610   -6.7250   -1.9580 h1        1 FJ6      0.045033
     47 H17         3.6220   -5.7150   -1.2510 h1        1 FJ6      0.045033
     48 H18         3.9700   -6.9010   -2.6140 h1        1 FJ6      0.045033
     49 H19        -1.2850   -1.7210   -4.9180 hn        1 FJ6      0.340500
     50 H20        -2.3210   -1.8650   -6.9650 hc        1 FJ6      0.091700
     51 H21        -3.4920    0.9680   -7.7200 hc        1 FJ6      0.087200
     52 H22        -2.9880   -0.3450   -8.9040 hc        1 FJ6      0.087200
     53 H23        -5.2020   -0.6110   -6.6620 hc        1 FJ6      0.087200
     54 H24        -4.7210   -1.9450   -7.8320 hc        1 FJ6      0.087200
@<TRIPOS>BOND
     1    1    2 ar
     2    1    6 ar
     3    1   10 1
     4    2    3 ar
     5    2   31 1
     6    3    4 ar
     7    3    9 1
     8    4    5 ar
     9    4    8 1
    10    5    6 ar
    11    5   32 1
    12    6    7 1
    13    7   33 1
    14    8   34 1
    15    9   11 1
    16    9   12 1
    17    9   35 1
    18   10   13 2
    19   10   16 1
    20   11   36 1
    21   11   37 1
    22   11   38 1
    23   12   39 1
    24   12   40 1
    25   12   41 1
    26   13   14 1
    27   14   15 1
    28   15   16 2
    29   15   25 1
    30   16   17 1
    31   17   18 ar
    32   17   22 ar
    33   18   19 ar
    34   18   42 1
    35   19   20 ar
    36   19   43 1
    37   20   21 ar
    38   20   23 1
    39   21   22 ar
    40   21   44 1
    41   22   45 1
    42   23   24 1
    43   24   46 1
    44   24   47 1
    45   24   48 1
    46   25   26 1
    47   25   49 1
    48   26   27 2
    49   26   28 1
    50   28   29 1
    51   28   30 1
    52   28   50 1
    53   29   30 1
    54   29   51 1
    55   29   52 1
    56   30   53 1
    57   30   54 1
@<TRIPOS>SUBSTRUCTURE
     1 FJ6         1 TEMP              0 ****  ****    0 ROOT
