@<TRIPOS>MOLECULE
molecule
   68    73     1     0     0
SMALL
bcc


@<TRIPOS>ATOM
      1 C01          0.0000     0.0000     0.0000 ca         1 FJ7      -0.134000
      2 C02          1.3890     0.0000     0.0000 ca         1 FJ7       0.056600
      3 C03          2.0810     0.0000     1.2070 ca         1 FJ7       0.158900
      4 C04          1.3830     0.0000     2.4010 ca         1 FJ7      -0.173000
      5 C05         -0.0000     0.0000     2.3950 ca         1 FJ7      -0.112000
      6 C06         -0.6900     0.0000     1.1960 ca         1 FJ7      -0.140000
      7 C09          1.7610     1.1870    -2.0100 c3         1 FJ7       0.125300
      8 C10          2.6060     1.1900    -3.2860 c3         1 FJ7       0.162300
      9 C12          2.6740    -1.2300    -3.2440 c3         1 FJ7       0.162300
     10 C13          1.8300    -1.2320    -1.9680 c3         1 FJ7       0.125300
     11 C14          0.9530    -0.0890    -4.5090 c3         1 FJ7       0.216100
     12 C15          0.7610     0.9080    -5.6230 ca         1 FJ7      -0.129300
     13 C16          1.2590     0.6390    -6.8900 ca         1 FJ7       0.153100
     14 C17          1.0810     1.5590    -7.9120 ca         1 FJ7      -0.227000
     15 C18          0.4070     2.7400    -7.6670 ca         1 FJ7      -0.042000
     16 C19         -0.0890     3.0060    -6.4040 ca         1 FJ7      -0.107300
     17 C20          0.0830     2.0880    -5.3850 ca         1 FJ7      -0.099000
     18 C21         -0.8220     4.2960    -6.1400 c3         1 FJ7       0.278000
     19 C22         -0.6400     4.6960    -4.6940 cc         1 FJ7      -0.114300
     20 C23          0.2110     5.6710    -4.3020 cd         1 FJ7      -0.122400
     21 C24          1.0710     6.4600    -5.2580 c3         1 FJ7      -0.027200
     22 C25          1.1000     5.7110    -6.5970 c3         1 FJ7       0.051500
     23 C27          1.7170     6.5920    -7.6530 c          1 FJ7       0.899600
     24 C30          0.1120     5.7710    -2.8640 ca         1 FJ7      -0.086800
     25 C31         -0.8390     4.7940    -2.4700 ca         1 FJ7      -0.041200
     26 C33         -1.1690     4.6270    -1.1260 ca         1 FJ7      -0.166000
     27 C34         -0.5290     5.4510    -0.2160 ca         1 FJ7      -0.122000
     28 C35          0.3970     6.4030    -0.6060 ca         1 FJ7      -0.189000
     29 C36          0.7430     6.5890    -1.9220 ca         1 FJ7      -0.061000
     30 C38          2.4080    -0.7320    -8.4550 c3         1 FJ7       0.128700
     31 F07          3.4320    -0.0000     1.2130 f          1 FJ7      -0.127900
     32 N08          2.0900    -0.0010    -1.2100 nh         1 FJ7      -0.608000
     33 N11          2.3450    -0.0420    -4.0450 n3         1 FJ7      -0.704600
     34 N26         -0.2720     5.3620    -6.9920 n7         1 FJ7      -0.773200
     35 N32         -1.2710     4.1660    -3.6030 na         1 FJ7      -0.177400
     36 O28          1.0120     7.1900    -8.4300 o          1 FJ7      -0.838300
     37 O29          3.0520     6.7120    -7.7300 o          1 FJ7      -0.838300
     38 O37          1.9220    -0.5230    -7.1280 os         1 FJ7      -0.325900
     39 H1          -0.5420    -0.0000    -0.9380 ha         1 FJ7       0.139000
     40 H2           1.9200     0.0000     3.3420 ha         1 FJ7       0.141000
     41 H3          -0.5450     0.0000     3.3310 ha         1 FJ7       0.129000
     42 H4          -1.7730     0.0000     1.1950 ha         1 FJ7       0.128000
     43 H5           1.9750     2.0790    -1.4340 h1         1 FJ7       0.040950
     44 H6           0.7100     1.1640    -2.2740 h1         1 FJ7       0.040950
     45 H7           3.6560     1.2350    -3.0220 h1         1 FJ7       0.068700
     46 H8           2.3430     2.0490    -3.8910 h1         1 FJ7       0.068700
     47 H9           3.7250    -1.2070    -2.9810 h1         1 FJ7       0.068700
     48 H10          2.4600    -2.1220    -3.8200 h1         1 FJ7       0.068700
     49 H11          0.7800    -1.2790    -2.2310 h1         1 FJ7       0.040950
     50 H12          2.0950    -2.0910    -1.3630 h1         1 FJ7       0.040950
     51 H13          0.7280    -1.0840    -4.8730 h1         1 FJ7       0.032700
     52 H14          0.2900     0.1540    -3.6880 h1         1 FJ7       0.032700
     53 H15          1.4690     1.3510    -8.9020 ha         1 FJ7       0.134000
     54 H16          0.2690     3.4600    -8.4650 ha         1 FJ7       0.174000
     55 H17         -0.3060     2.2980    -4.3960 ha         1 FJ7       0.128000
     56 H18         -1.8770     4.1710    -6.3510 h1         1 FJ7       0.053700
     57 H19          2.0760     6.5420    -4.8630 hc         1 FJ7       0.061700
     58 H20          0.6460     7.4470    -5.4010 hc         1 FJ7       0.061700
     59 H21          1.6840     4.8050    -6.4890 h1         1 FJ7       0.069700
     60 H22         -2.1140     4.2250    -0.7820 ha         1 FJ7       0.120000
     61 H23         -0.8680     5.4680     0.8130 ha         1 FJ7       0.111000
     62 H24          0.8030     7.0760     0.1400 ha         1 FJ7       0.113000
     63 H25          1.3770     7.4560    -2.0640 ha         1 FJ7       0.139000
     64 H26          3.1090     0.0530    -8.7110 h1         1 FJ7       0.036700
     65 H27          2.9050    -1.6930    -8.5110 h1         1 FJ7       0.036700
     66 H28          1.5770    -0.7140    -9.1510 h1         1 FJ7       0.036700
     67 H30         -0.8540     6.1730    -6.9270 hn         1 FJ7       0.368800
     68 H32         -1.9540     3.4350    -3.6310 hn         1 FJ7       0.286700
@<TRIPOS>BOND
     1    36    23 1
     2    37    23 1
     3    23    22 1
     4    22    34 1
     5    22    21 1
     6    34    18 1
     7    18    19 1
     8    18    16 1
     9    35    19 1
    10    35    25 1
    11    19    20 2
    12    25    26 ar
    13    25    24 ar
    14    26    27 ar
    15    20    24 1
    16    20    21 1
    17    24    29 ar
    18    27    28 ar
    19    29    28 ar
    20    16    15 ar
    21    16    17 ar
    22    15    14 ar
    23    17    12 ar
    24    14    13 ar
    25    12    13 ar
    26    12    11 1
    27    13    38 1
    28    33     9 1
    29    33    11 1
    30    33     8 1
    31     9    10 1
    32     8     7 1
    33    38    30 1
    34    10    32 1
    35     7    32 1
    36    32     2 1
    37    31     3 1
    38     2     3 ar
    39     2     1 ar
    40     3     4 ar
    41     1     6 ar
    42     4     5 ar
    43     6     5 ar
    44     1    39 1
    45     4    40 1
    46     5    41 1
    47     6    42 1
    48     7    43 1
    49     7    44 1
    50     8    45 1
    51     8    46 1
    52     9    47 1
    53     9    48 1
    54    10    49 1
    55    10    50 1
    56    11    51 1
    57    11    52 1
    58    14    53 1
    59    15    54 1
    60    17    55 1
    61    18    56 1
    62    21    57 1
    63    21    58 1
    64    22    59 1
    65    26    60 1
    66    27    61 1
    67    28    62 1
    68    29    63 1
    69    30    64 1
    70    30    65 1
    71    30    66 1
    72    34    67 1
    73    35    68 1
@<TRIPOS>SUBSTRUCTURE
     1 FJ7         1 TEMP              0 ****  ****    0 ROOT
