@<TRIPOS>MOLECULE
FJ7
   68    73     1     0     0
SMALL
bcc


@<TRIPOS>ATOM
      1 C01          0.0000     0.0000     0.0000 ca         1 FJ7      -0.108000
      2 C02          1.3890     0.0000     0.0000 ca         1 FJ7      -0.009400
      3 C03          2.0810     0.0000     1.2070 ca         1 FJ7       0.134900
      4 C04          1.3830     0.0000     2.4010 ca         1 FJ7      -0.137000
      5 C05         -0.0000     0.0000     2.3950 ca         1 FJ7      -0.082000
      6 C06         -0.6900     0.0000     1.1960 ca         1 FJ7      -0.108000
      7 C09          1.7610     1.1870    -2.0100 c3         1 FJ7       0.101800
      8 C10          2.6060     1.1900    -3.2860 c3         1 FJ7       0.149800
      9 C12          2.6740    -1.2300    -3.2440 c3         1 FJ7       0.149800
     10 C13          1.8300    -1.2320    -1.9680 c3         1 FJ7       0.101800
     11 C14          0.9530    -0.0890    -4.5090 c3         1 FJ7       0.208100
     12 C15          0.7610     0.9080    -5.6230 ca         1 FJ7      -0.143300
     13 C16          1.2590     0.6390    -6.8900 ca         1 FJ7       0.160100
     14 C17          1.0810     1.5590    -7.9120 ca         1 FJ7      -0.211000
     15 C18          0.4070     2.7400    -7.6670 ca         1 FJ7      -0.015000
     16 C19         -0.0890     3.0060    -6.4040 ca         1 FJ7      -0.116300
     17 C20          0.0830     2.0880    -5.3850 ca         1 FJ7      -0.085000
     18 C21         -0.8220     4.2960    -6.1400 c3         1 FJ7       0.274000
     19 C22         -0.6400     4.6960    -4.6940 cc         1 FJ7      -0.313300
     20 C23          0.2110     5.6710    -4.3020 cd         1 FJ7      -0.108400
     21 C24          1.0710     6.4600    -5.2580 c3         1 FJ7       0.049800
     22 C25          1.1000     5.7110    -6.5970 c3         1 FJ7      -0.004500
     23 C27          1.7170     6.5920    -7.6530 c          1 FJ7       0.985600
     24 C30          0.1120     5.7710    -2.8640 ca         1 FJ7      -0.086800
     25 C31         -0.8390     4.7940    -2.4700 ca         1 FJ7      -0.229200
     26 C33         -1.1690     4.6270    -1.1260 ca         1 FJ7      -0.136000
     27 C34         -0.5290     5.4510    -0.2160 ca         1 FJ7      -0.096000
     28 C35          0.3970     6.4030    -0.6060 ca         1 FJ7      -0.175000
     29 C36          0.7430     6.5890    -1.9220 ca         1 FJ7      -0.017000
     30 C38          2.4080    -0.7320    -8.4550 c3         1 FJ7       0.238700
     31 F07          3.4320    -0.0000     1.2130 f          1 FJ7      -0.120900
     32 N08          2.0900    -0.0010    -1.2100 nh         1 FJ7      -0.388000
     33 N11          2.3450    -0.0420    -4.0450 n3         1 FJ7      -0.522600
     34 N26         -0.2720     5.3620    -6.9920 n7         1 FJ7      -0.546200
     35 N32         -1.2710     4.1660    -3.6030 na         1 FJ7       0.365600
     36 O28          1.0120     7.1900    -8.4300 o          1 FJ7      -0.889800
     37 O29          3.0520     6.7120    -7.7300 o          1 FJ7      -0.889800
     38 O37          1.9220    -0.5230    -7.1280 os         1 FJ7      -0.303900
     39 H1          -0.5420    -0.0000    -0.9380 ha         1 FJ7       0.116000
     40 H2           1.9200     0.0000     3.3420 ha         1 FJ7       0.115000
     41 H3          -0.5450     0.0000     3.3310 ha         1 FJ7       0.102000
     42 H4          -1.7730     0.0000     1.1950 ha         1 FJ7       0.103000
     43 H5           1.9750     2.0790    -1.4340 h1         1 FJ7       0.019950
     44 H6           0.7100     1.1640    -2.2740 h1         1 FJ7       0.019950
     45 H7           3.6560     1.2350    -3.0220 h1         1 FJ7       0.036950
     46 H8           2.3430     2.0490    -3.8910 h1         1 FJ7       0.036950
     47 H9           3.7250    -1.2070    -2.9810 h1         1 FJ7       0.036950
     48 H10          2.4600    -2.1220    -3.8200 h1         1 FJ7       0.036950
     49 H11          0.7800    -1.2790    -2.2310 h1         1 FJ7       0.019950
     50 H12          2.0950    -2.0910    -1.3630 h1         1 FJ7       0.019950
     51 H13          0.7280    -1.0840    -4.8730 h1         1 FJ7       0.010200
     52 H14          0.2900     0.1540    -3.6880 h1         1 FJ7       0.010200
     53 H15          1.4690     1.3510    -8.9020 ha         1 FJ7       0.119000
     54 H16          0.2690     3.4600    -8.4650 ha         1 FJ7       0.143000
     55 H17         -0.3060     2.2980    -4.3960 ha         1 FJ7       0.102000
     56 H18         -1.8770     4.1710    -6.3510 h1         1 FJ7       0.018700
     57 H19          2.0760     6.5420    -4.8630 hc         1 FJ7       0.031200
     58 H20          0.6460     7.4470    -5.4010 hc         1 FJ7       0.031200
     59 H21          1.6840     4.8050    -6.4890 h1         1 FJ7       0.047700
     60 H22         -2.1140     4.2250    -0.7820 ha         1 FJ7       0.098000
     61 H23         -0.8680     5.4680     0.8130 ha         1 FJ7       0.085000
     62 H24          0.8030     7.0760     0.1400 ha         1 FJ7       0.092000
     63 H25          1.3770     7.4560    -2.0640 ha         1 FJ7       0.109000
     64 H26          3.1090     0.0530    -8.7110 h1         1 FJ7      -0.005300
     65 H27          2.9050    -1.6930    -8.5110 h1         1 FJ7      -0.005300
     66 H28          1.5770    -0.7140    -9.1510 h1         1 FJ7      -0.005300
     67 H30         -0.8540     6.1730    -6.9270 hn         1 FJ7       0.268800
     68 H32         -1.9540     3.4350    -3.6310 hn         1 FJ7       0.107700
@<TRIPOS>BOND
     1     1     2 ar  
     2     1     6 ar  
     3     1    39 1   
     4     2     3 ar  
     5     2    32 1   
     6     3     4 ar  
     7     3    31 1   
     8     4     5 ar  
     9     4    40 1   
    10     5     6 ar  
    11     5    41 1   
    12     6    42 1   
    13     7     8 1   
    14     7    32 1   
    15     7    43 1   
    16     7    44 1   
    17     8    33 1   
    18     8    45 1   
    19     8    46 1   
    20     9    10 1   
    21     9    33 1   
    22     9    47 1   
    23     9    48 1   
    24    10    32 1   
    25    10    49 1   
    26    10    50 1   
    27    11    12 1   
    28    11    33 1   
    29    11    51 1   
    30    11    52 1   
    31    12    13 ar  
    32    12    17 ar  
    33    13    14 ar  
    34    13    38 1   
    35    14    15 ar  
    36    14    53 1   
    37    15    16 ar  
    38    15    54 1   
    39    16    17 ar  
    40    16    18 1   
    41    17    55 1   
    42    18    19 1   
    43    18    34 1   
    44    18    56 1   
    45    19    20 2   
    46    19    35 1   
    47    20    21 1   
    48    20    24 1   
    49    21    22 1   
    50    21    57 1   
    51    21    58 1   
    52    22    23 1   
    53    22    34 1   
    54    22    59 1   
    55    23    36 1   
    56    23    37 1   
    57    24    25 ar  
    58    24    29 ar  
    59    25    26 ar  
    60    25    35 1   
    61    26    27 ar  
    62    26    60 1   
    63    27    28 ar  
    64    27    61 1   
    65    28    29 ar  
    66    28    62 1   
    67    29    63 1   
    68    30    38 1   
    69    30    64 1   
    70    30    65 1   
    71    30    66 1   
    72    34    67 1   
    73    35    68 1   
@<TRIPOS>SUBSTRUCTURE
     1 FJ7         1 TEMP              0 ****  ****    0 ROOT
