@<TRIPOS>MOLECULE
FJA
   59    61     1     0     0
SMALL
bcc


@<TRIPOS>ATOM
      1 CAA         0.4990    0.2770    0.0240 c3        1 FJA     -0.078700
      2 CAB         1.5850    0.8910    0.9050 c3        1 FJA     -0.028500
      3 CAC         2.1240    0.0100    1.9930 c2        1 FJA     -0.115400
      4 CAD         1.5910   -0.2410    3.1940 c2        1 FJA     -0.144200
      5 CAE         0.3250    0.2660    3.8010 c3        1 FJA      0.031400
      6 CAF        -0.5080    1.1490    2.8820 c2        1 FJA     -0.146400
      7 CAG        -1.3700    0.5000    1.8550 c3        1 FJA      0.161300
      8 CAH        -0.6890   -0.3540    0.7600 c3        1 FJA      0.121100
      9 CAI         2.8220    1.3050    0.0910 c3        1 FJA     -0.077400
     10 CAJ         3.8720    0.2250    0.3160 c3        1 FJA     -0.071400
     11 CAK         3.5130   -0.4610    1.6370 c3        1 FJA     -0.034500
     12 CAL         0.6750    1.2260    4.9950 c3        1 FJA      0.141100
     13 CAM         0.4060    2.6460    4.4750 c3        1 FJA     -0.087200
     14 CAN        -0.4320    2.4530    3.2440 c2        1 FJA     -0.094400
     15 CAO        -0.4840   -0.9020    4.3490 c3        1 FJA     -0.096100
     16 CAP         3.6000   -1.9790    1.5620 c3        1 FJA      0.134400
     17 CAQ         1.0330   -0.7530   -0.9560 c3        1 FJA     -0.089100
     18 OAR        -0.4270   -1.6590    1.2350 oh        1 FJA     -0.597800
     19 OAS        -2.2620    1.4030    1.2190 oh        1 FJA     -0.591800
     20 OAT         4.9820   -2.3200    1.6770 os        1 FJA     -0.423600
     21 CAU        -1.0530    3.6520    2.6210 c3        1 FJA     -0.014500
     22 CAV        -2.4770    3.8360    3.1180 c3        1 FJA     -0.090600
     23 CAW        -0.2420    4.9100    2.8760 c3        1 FJA     -0.090600
     24 OAX         2.0170    1.0290    5.3980 oh        1 FJA     -0.589800
     25 CAY         5.2010   -3.7180    1.6290 c3        1 FJA      0.116700
     26 HAA         0.0730    1.1340   -0.5780 hc        1 FJA      0.042700
     27 HAB         1.1450    1.8200    1.3700 hc        1 FJA      0.066700
     28 HAD         2.1670   -0.8660    3.9060 ha        1 FJA      0.140000
     29 HAG        -2.0720   -0.1970    2.4170 h1        1 FJA      0.094700
     30 HAH        -1.4990   -0.5310   -0.0190 h1        1 FJA      0.076700
     31 HAI         2.5870    1.4370   -0.9920 hc        1 FJA      0.044200
     32 HAIA        3.1990    2.2880    0.4740 hc        1 FJA      0.044200
     33 HAJ         4.8990    0.6620    0.3660 hc        1 FJA      0.048700
     34 HAJA        3.8590   -0.5120   -0.5260 hc        1 FJA      0.048700
     35 HAK         4.2260   -0.1160    2.4380 hc        1 FJA      0.080700
     36 HAL        -0.0010    0.9990    5.8660 h1        1 FJA      0.041700
     37 HAM        -0.1400    3.2580    5.2350 hc        1 FJA      0.060700
     38 HAMA        1.3660    3.1660    4.2240 hc        1 FJA      0.060700
     39 HAO        -0.7200   -1.6380    3.5420 hc        1 FJA      0.047367
     40 HAOA        0.0990   -1.4210    5.1480 hc        1 FJA      0.047367
     41 HAOB       -1.4440   -0.5350    4.7850 hc        1 FJA      0.047367
     42 HAP         3.1990   -2.3740    0.5910 h1        1 FJA      0.029700
     43 HAPA        3.0300   -2.4470    2.4100 h1        1 FJA      0.029700
     44 HAQ         1.5800   -1.5590   -0.4090 hc        1 FJA      0.040367
     45 HAQA        0.1870   -1.2230   -1.5160 hc        1 FJA      0.040367
     46 HAQB        1.7280   -0.2880   -1.6940 hc        1 FJA      0.040367
     47 HOAR        0.4190   -1.6430    1.7010 ho        1 FJA      0.412000
     48 HOAS       -1.7500    1.9170    0.5820 ho        1 FJA      0.397000
     49 H24        -1.0850    3.5050    1.5030 hc        1 FJA      0.044700
     50 HAV        -3.0960    2.9500    2.8320 hc        1 FJA      0.038700
     51 HAVA       -2.9250    4.7520    2.6640 hc        1 FJA      0.038700
     52 HAVB       -2.4920    3.9450    4.2290 hc        1 FJA      0.038700
     53 HAW        -0.6850    5.7640    2.3090 hc        1 FJA      0.038700
     54 HAWA        0.8140    4.7700    2.5440 hc        1 FJA      0.038700
     55 H30        -0.2430    5.1720    3.9610 hc        1 FJA      0.038700
     56 HOAX        2.2160    1.7300    6.0320 ho        1 FJA      0.401000
     57 HAY         6.3090   -3.8320    1.7320 h1        1 FJA      0.032367
     58 HAYA        4.8530   -4.1400    0.6540 h1        1 FJA      0.032367
     59 HAYB        4.6740   -4.2300    2.4730 h1        1 FJA      0.032367
@<TRIPOS>BOND
     1    1    2 1   
     2    1    8 1   
     3    1   17 1   
     4    1   26 1   
     5    2    3 1   
     6    2    9 1   
     7    2   27 1   
     8    3    4 2   
     9    3   11 1   
    10    4    5 1   
    11    4   28 1   
    12    5    6 1   
    13    5   12 1   
    14    5   15 1   
    15    6    7 1   
    16    6   14 2   
    17    7    8 1   
    18    7   19 1   
    19    7   29 1   
    20    8   18 1   
    21    8   30 1   
    22    9   10 1   
    23    9   31 1   
    24    9   32 1   
    25   10   11 1   
    26   10   33 1   
    27   10   34 1   
    28   11   16 1   
    29   11   35 1   
    30   12   13 1   
    31   12   24 1   
    32   12   36 1   
    33   13   14 1   
    34   13   37 1   
    35   13   38 1   
    36   14   21 1   
    37   15   39 1   
    38   15   40 1   
    39   15   41 1   
    40   16   20 1   
    41   16   42 1   
    42   16   43 1   
    43   17   44 1   
    44   17   45 1   
    45   17   46 1   
    46   18   47 1   
    47   19   48 1   
    48   20   25 1   
    49   21   22 1   
    50   21   23 1   
    51   21   49 1   
    52   22   50 1   
    53   22   51 1   
    54   22   52 1   
    55   23   53 1   
    56   23   54 1   
    57   23   55 1   
    58   24   56 1   
    59   25   57 1   
    60   25   58 1   
    61   25   59 1   
@<TRIPOS>SUBSTRUCTURE
     1 FJA         1 TEMP              0 ****  ****    0 ROOT
