@<TRIPOS>MOLECULE
molecule
   59    61     1     0     0
SMALL
bcc


@<TRIPOS>ATOM
      1 CAA          0.0000     0.0000     0.0000 c3         1 FJA      -0.074700
      2 CAB          1.5200     0.0000     0.0000 c3         1 FJA       0.017500
      3 CAC          2.2850     0.0000     1.3010 c2         1 FJA      -0.100400
      4 CAD          2.0510     0.2990     2.5770 c2         1 FJA      -0.145200
      5 CAE          0.6440     0.2920     3.1460 c3         1 FJA       0.027400
      6 CAF          0.0260     1.5420     2.5780 c2         1 FJA      -0.088400
      7 CAG          0.2880     2.1660     1.2260 c3         1 FJA       0.202300
      8 CAH         -0.6170     1.4090     0.2480 c3         1 FJA       0.143100
      9 CAI          2.0520    -1.3060    -0.6180 c3         1 FJA      -0.092400
     10 CAJ          3.5310    -1.3380    -0.2320 c3         1 FJA      -0.075400
     11 CAK          3.7210    -0.3510     0.9150 c3         1 FJA      -0.045500
     12 CAL          0.7400     0.5130     4.6690 c3         1 FJA       0.142100
     13 CAM         -0.3360     1.5780     4.8700 c3         1 FJA      -0.074200
     14 CAN         -0.6130     2.1820     3.5250 c2         1 FJA      -0.117400
     15 CAO         -0.1010    -1.0210     2.9710 c3         1 FJA      -0.076100
     16 CAP          4.4650    -1.0230     2.0720 c3         1 FJA       0.142400
     17 CAQ         -0.8400    -1.1980     0.2060 c3         1 FJA      -0.072100
     18 OAR         -1.9250     1.2440     0.7940 oh         1 FJA      -0.589800
     19 OAS          1.6470     2.3000     0.8630 oh         1 FJA      -0.566800
     20 OAT          5.8300    -1.2250     1.7050 os         1 FJA      -0.434600
     21 CAU         -1.5250     3.3650     3.3230 c3         1 FJA      -0.019500
     22 CAV         -2.9260     3.0220     3.8300 c3         1 FJA      -0.085600
     23 CAW         -0.9810     4.5660     4.0990 c3         1 FJA      -0.085600
     24 OAX          2.0190     0.9920     5.0630 oh         1 FJA      -0.595800
     25 CAY          6.6180    -1.8500     2.7220 c3         1 FJA       0.130700
     26 HAA         -0.1050     0.0100    -1.0780 hc         1 FJA       0.000700
     27 HAB          1.8630     0.8330    -0.6010 hc         1 FJA       0.076700
     28 HAD          2.8830     0.5540     3.2230 ha         1 FJA       0.159000
     29 HAG         -0.1070     3.1730     1.2800 h1         1 FJA       0.023700
     30 HAH         -0.6720     1.9510    -0.6880 h1         1 FJA       0.028700
     31 HAI          1.9440    -1.2830    -1.6960 hc         1 FJA       0.041700
     32 HAIA         1.5340    -2.1590    -0.1980 hc         1 FJA       0.041700
     33 HAJ          4.1380    -1.0400    -1.0780 hc         1 FJA       0.045200
     34 HAJA         3.8040    -2.3350     0.0920 hc         1 FJA       0.045200
     35 HAK          4.2490     0.5310     0.5730 hc         1 FJA       0.071700
     36 HAL          0.4820    -0.3940     5.2020 h1         1 FJA       0.041700
     37 HAM         -1.2380     1.1210     5.2610 hc         1 FJA       0.054200
     38 HAMA         0.0230     2.3410     5.5490 hc         1 FJA       0.054200
     39 HAO         -0.1220    -1.5520     3.9150 hc         1 FJA       0.044367
     40 HAOA         0.4030    -1.6250     2.2270 hc         1 FJA       0.044367
     41 HAOB        -1.1150    -0.8200     2.6470 hc         1 FJA       0.044367
     42 HAP          4.0040    -1.9780     2.2910 h1         1 FJA       0.029200
     43 HAPA         4.4160    -0.3890     2.9490 h1         1 FJA       0.029200
     44 HAQ         -1.2480    -1.5210    -0.7450 hc         1 FJA       0.041367
     45 HAQA        -1.6510    -0.9590     0.8840 hc         1 FJA       0.041367
     46 HAQB        -0.2380    -1.9930     0.6290 hc         1 FJA       0.041367
     47 HOAR        -2.5680     1.4940     0.1510 ho         1 FJA       0.399000
     48 HOAS         1.8130     3.1870     0.5890 ho         1 FJA       0.394000
     49 H24         -1.5720     3.6080     2.2680 hc         1 FJA       0.052700
     50 HAV         -3.6370     3.7410     3.4430 hc         1 FJA       0.035200
     51 HAVA        -2.9360     3.0520     4.9130 hc         1 FJA       0.035200
     52 HAVB        -3.1990     2.0280     3.4940 hc         1 FJA       0.035200
     53 HAW         -1.1490     4.4180     5.1590 hc         1 FJA       0.035200
     54 HAWA         0.0810     4.6660     3.9120 hc         1 FJA       0.035200
     55 H30         -1.4910     5.4660     3.7750 hc         1 FJA       0.035200
     56 HOAX         2.1480     0.8240     5.9810 ho         1 FJA       0.397000
     57 HAY          6.6800    -1.1960     3.5830 h1         1 FJA       0.026700
     58 HAYA         7.6140    -2.0410     2.3410 h1         1 FJA       0.026700
     59 HAYB         6.1570    -2.7860     3.0120 h1         1 FJA       0.026700
@<TRIPOS>BOND
     1     1     2 1
     2     2     3 1
     3     2     9 1
     4     3    11 1
     5     4     3 2
     6     5     4 1
     7     5    12 1
     8     6     5 1
     9     6    14 2
    10     7     6 1
    11     7     8 1
    12     8     1 1
    13     9    10 1
    14    11    10 1
    15    12    13 1
    16    12    24 1
    17    14    13 1
    18    15     5 1
    19    16    11 1
    20    16    20 1
    21    17     1 1
    22    18     8 1
    23    19     7 1
    24    21    14 1
    25    21    23 1
    26    22    21 1
    27    25    20 1
    28     1    26 1
    29     2    27 1
    30     4    28 1
    31     7    29 1
    32     8    30 1
    33     9    31 1
    34     9    32 1
    35    10    33 1
    36    10    34 1
    37    11    35 1
    38    12    36 1
    39    13    37 1
    40    13    38 1
    41    15    39 1
    42    15    40 1
    43    15    41 1
    44    16    42 1
    45    16    43 1
    46    17    44 1
    47    17    45 1
    48    17    46 1
    49    18    47 1
    50    19    48 1
    51    21    49 1
    52    22    50 1
    53    22    51 1
    54    22    52 1
    55    23    53 1
    56    23    54 1
    57    23    55 1
    58    24    56 1
    59    25    57 1
    60    25    58 1
    61    25    59 1
@<TRIPOS>SUBSTRUCTURE
     1 FJA         1 TEMP              0 ****  ****    0 ROOT
