@<TRIPOS>MOLECULE
FJD
   59    63     1     0     0
SMALL
bcc


@<TRIPOS>ATOM
      1 CL1         0.1690   -0.5270   -0.2940 cl        1 FJD     -0.004400
      2 C25         1.8150   -0.3830   -0.0640 cc        1 FJD     -0.033700
      3 C24         2.4470   -0.3570    1.1720 cd        1 FJD     -0.152000
      4 C22         3.8520   -0.2250    1.0320 cd        1 FJD     -0.120000
      5 S1          2.9080   -0.2500   -1.3240 ss        1 FJD      0.140200
      6 C20         4.2390   -0.1550   -0.3060 cc        1 FJD     -0.198600
      7 C17         5.5900   -0.0190   -0.7230 cc        1 FJD      0.288900
      8 O16         5.8850   -0.0200   -2.0950 os        1 FJD     -0.374800
      9 C10         6.7990    0.1330   -0.0430 cd        1 FJD      0.218900
     10 N9          7.8470    0.2260   -0.9670 nd        1 FJD     -0.682000
     11 C4          7.2820    0.1380   -2.1710 cc        1 FJD      0.498700
     12 C1          7.8320    0.1130   -3.5680 c3        1 FJD      0.168200
     13 N3          8.6030   -1.1240   -3.7690 n3        1 FJD     -0.696600
     14 C7          9.9710   -0.7840   -4.2200 c3        1 FJD      0.173500
     15 C14        10.2160   -1.4100   -5.6070 c3        1 FJD     -0.092400
     16 C15         8.9720   -2.2280   -5.9290 c3        1 FJD     -0.101400
     17 C8          8.0280   -2.0720   -4.7260 c3        1 FJD      0.148800
     18 C5         10.1330    0.7440   -4.2100 c3        1 FJD     -0.146700
     19 C2          8.7390    1.3310   -3.8720 c3        1 FJD     -0.147700
     20 C6          8.9790    2.2680   -2.6910 c         1 FJD      0.724500
     21 O13         8.1800    3.0530   -2.1780 o         1 FJD     -0.558500
     22 C11        11.0390    1.2220   -3.0790 c         1 FJD      0.715500
     23 O18        12.2040    0.8800   -2.8520 o         1 FJD     -0.594500
     24 N12        10.3350    2.1600   -2.2900 n         1 FJD     -0.515400
     25 C19        10.8700    2.7560   -1.1040 c3        1 FJD      0.116000
     26 C21        11.0940    1.7430    0.0330 c3        1 FJD     -0.144400
     27 C23        11.7110    2.4730    1.2130 c3        1 FJD      0.120800
     28 N29        12.1690    1.5760    2.3390 n4        1 FJD     -0.602800
     29 C32        12.5590    2.4360    3.4980 c3        1 FJD      0.088433
     30 C31        11.0680    0.6600    2.7560 c3        1 FJD      0.088433
     31 C30        13.3520    0.7710    1.9120 c3        1 FJD      0.088433
     32 H24         1.9380   -0.4300    2.1360 ha        1 FJD      0.174000
     33 H22         4.5410   -0.1860    1.8790 ha        1 FJD      0.155000
     34 H10         6.9760    0.1780    1.0300 h4        1 FJD      0.041100
     35 H1          6.9330    0.1650   -4.2580 h1        1 FJD      0.090700
     36 H7         10.6810   -1.2440   -3.4740 h1        1 FJD      0.091700
     37 H82         7.0000   -1.7720   -5.0650 h1        1 FJD      0.063200
     38 H81         7.9340   -3.0500   -4.1770 h1        1 FJD      0.063200
     39 H5         10.5340    1.1300   -5.1810 hc        1 FJD      0.113700
     40 H2          8.3100    1.9240   -4.7190 hc        1 FJD      0.113700
     41 H141       10.3890   -0.6260   -6.3850 hc        1 FJD      0.060200
     42 H142       11.1270   -2.0570   -5.5730 hc        1 FJD      0.060200
     43 H151        9.2280   -3.3050   -6.0820 hc        1 FJD      0.060700
     44 H152        8.4820   -1.8590   -6.8630 hc        1 FJD      0.060700
     45 H191       11.8610    3.2300   -1.3650 h1        1 FJD      0.074700
     46 H192       10.1550    3.5570   -0.7590 h1        1 FJD      0.074700
     47 H211       11.7680    0.9270   -0.3420 hc        1 FJD      0.088200
     48 H212       10.1120    1.2810    0.3200 hc        1 FJD      0.088200
     49 H231       12.6130    3.0610    0.8750 hx        1 FJD      0.097200
     50 H232       10.9540    3.1890    1.6450 hx        1 FJD      0.097200
     51 H321       11.6620    3.0070    3.8580 hx        1 FJD      0.102367
     52 H322       13.3600    3.1540    3.1760 hx        1 FJD      0.102367
     53 H323       12.9480    1.7880    4.3280 hx        1 FJD      0.102367
     54 H311       11.3860    0.0900    3.6700 hx        1 FJD      0.102367
     55 H312       10.1510    1.2640    2.9850 hx        1 FJD      0.102367
     56 H313       10.8450   -0.0620    1.9250 hx        1 FJD      0.102367
     57 H301       14.1800    1.4620    1.5990 hx        1 FJD      0.102367
     58 H302       13.6950    0.1350    2.7710 hx        1 FJD      0.102367
     59 H303       13.0700    0.1110    1.0490 hx        1 FJD      0.102367
@<TRIPOS>BOND
     1    1    2 1
     2    2    3 2
     3    2    5 1
     4    3    4 1
     5    3   32 1
     6    4    6 2
     7    4   33 1
     8    5    6 1
     9    6    7 1
    10    7    8 1
    11    7    9 2
    12    8   11 1
    13    9   10 1
    14    9   34 1
    15   10   11 2
    16   11   12 1
    17   12   13 1
    18   12   19 1
    19   12   35 1
    20   13   14 1
    21   13   17 1
    22   14   15 1
    23   14   18 1
    24   14   36 1
    25   15   16 1
    26   15   41 1
    27   15   42 1
    28   16   17 1
    29   16   43 1
    30   16   44 1
    31   17   37 1
    32   17   38 1
    33   18   19 1
    34   18   22 1
    35   18   39 1
    36   19   20 1
    37   19   40 1
    38   20   21 2
    39   20   24 1
    40   22   23 2
    41   22   24 1
    42   24   25 1
    43   25   26 1
    44   25   45 1
    45   25   46 1
    46   26   27 1
    47   26   47 1
    48   26   48 1
    49   27   28 1
    50   27   49 1
    51   27   50 1
    52   28   29 1
    53   28   30 1
    54   28   31 1
    55   29   51 1
    56   29   52 1
    57   29   53 1
    58   30   54 1
    59   30   55 1
    60   30   56 1
    61   31   57 1
    62   31   58 1
    63   31   59 1
@<TRIPOS>SUBSTRUCTURE
     1 FJD         1 TEMP              0 ****  ****    0 ROOT
