@<TRIPOS>MOLECULE
FJE
   29    31     1     0     0
SMALL
bcc


@<TRIPOS>ATOM
      1 C8           0.0000     0.0000     0.0000 ca         1 FJE       0.150900
      2 C5           1.3940     0.0000     2.4070 ca         1 FJE      -0.147000
      3 C6           2.0920     0.0000     1.2150 ca         1 FJE       0.156900
      4 N1           2.9080    -3.4430    -2.2070 na         1 FJE       0.294900
      5 N2           4.3140    -3.2850    -4.2440 nb         1 FJE      -0.560000
      6 C4           0.0110    -0.0040     2.4050 ca         1 FJE      -0.055000
      7 F1           3.4420     0.0040     1.2220 f          1 FJE      -0.118900
      8 C7           1.3980     0.0000     0.0000 ca         1 FJE      -0.218600
      9 C9           2.1390    -0.0000    -1.2770 c          1 FJE       0.690900
     10 C10          2.5890    -1.2680    -1.8640 cc         1 FJE      -0.237400
     11 C16          3.4340    -1.4390    -3.0600 ca         1 FJE      -0.153100
     12 C15          4.0370    -0.5610    -3.9580 ca         1 FJE      -0.006000
     13 C14          4.7810    -1.0980    -4.9940 ca         1 FJE      -0.181900
     14 Cl           5.5590    -0.0590    -6.1460 cl         1 FJE      -0.005400
     15 C13          4.8870    -2.4760    -5.1090 ca         1 FJE       0.416200
     16 C12          3.5950    -2.8230    -3.2280 ca         1 FJE       0.207800
     17 C11          2.3170    -2.5260    -1.4050 cd         1 FJE      -0.210100
     18 O2           2.3770     1.0510    -1.8440 o          1 FJE      -0.543100
     19 F           -0.6780     0.0000    -1.1690 f          1 FJE      -0.114900
     20 C3          -0.6880    -0.0050     1.2050 ca         1 FJE      -0.013400
     21 N           -2.0880    -0.0110     1.2110 nv         1 FJE      -0.546200
     22 H1           1.9320     0.0000     3.3480 ha         1 FJE       0.125000
     23 H3          -0.5290    -0.0060     3.3440 ha         1 FJE       0.116000
     24 H4           4.1380     0.4880    -3.7060 ha         1 FJE       0.139000
     25 H5           5.4700    -2.8950    -5.9210 h4         1 FJE      -0.010900
     26 H6           1.7180    -2.7550    -0.5310 h4         1 FJE       0.147000
     27 H7          -2.5920     0.8540     1.2230 hn         1 FJE       0.278800
     28 H8          -2.5850    -0.8790     1.2200 hn         1 FJE       0.278800
     29 H2           2.8540    -4.4340    -2.0760 hn         1 FJE       0.119700
@<TRIPOS>BOND
     1     1     8 ar  
     2     1    19 1   
     3     1    20 ar  
     4     2     3 ar  
     5     2     6 ar  
     6     2    22 1   
     7     3     7 1   
     8     3     8 ar  
     9     4    16 1   
    10     4    17 1   
    11     4    29 1   
    12     5    15 ar  
    13     5    16 ar  
    14     6    20 ar  
    15     6    23 1   
    16     8     9 1   
    17     9    10 1   
    18     9    18 2   
    19    10    11 1   
    20    10    17 2   
    21    11    12 ar  
    22    11    16 ar  
    23    12    13 ar  
    24    12    24 1   
    25    13    14 1   
    26    13    15 ar  
    27    15    25 1   
    28    17    26 1   
    29    20    21 1   
    30    21    27 1   
    31    21    28 1   
@<TRIPOS>SUBSTRUCTURE
     1 FJE         1 TEMP              0 ****  ****    0 ROOT
