@<TRIPOS>MOLECULE
molecule
   29    31     1     0     0
SMALL
bcc


@<TRIPOS>ATOM
      1 C8           0.0000     0.0000     0.0000 ca         1 FJE       0.169900
      2 C5           1.3940     0.0000     2.4070 ca         1 FJE      -0.184000
      3 C6           2.0920     0.0000     1.2150 ca         1 FJE       0.177900
      4 N1           2.9080    -3.4430    -2.2070 na         1 FJE      -0.261100
      5 N2           4.3140    -3.2850    -4.2440 nb         1 FJE      -0.698000
      6 C4           0.0110    -0.0040     2.4050 ca         1 FJE      -0.086000
      7 F1           3.4420     0.0040     1.2220 f          1 FJE      -0.124900
      8 C7           1.3980     0.0000     0.0000 ca         1 FJE      -0.235600
      9 C9           2.1390    -0.0000    -1.2770 c          1 FJE       0.626900
     10 C10          2.5890    -1.2680    -1.8640 cc         1 FJE      -0.235400
     11 C16          3.4340    -1.4390    -3.0600 ca         1 FJE      -0.168100
     12 C15          4.0370    -0.5610    -3.9580 ca         1 FJE      -0.031000
     13 C14          4.7810    -1.0980    -4.9940 ca         1 FJE      -0.124900
     14 Cl           5.5590    -0.0590    -6.1460 cl         1 FJE      -0.094400
     15 C13          4.8870    -2.4760    -5.1090 ca         1 FJE       0.456200
     16 C12          3.5950    -2.8230    -3.2280 ca         1 FJE       0.452800
     17 C11          2.3170    -2.5260    -1.4050 cd         1 FJE      -0.029100
     18 O2           2.3770     1.0510    -1.8440 o          1 FJE      -0.503100
     19 F           -0.6780     0.0000    -1.1690 f          1 FJE      -0.116900
     20 C3          -0.6880    -0.0050     1.2050 ca         1 FJE       0.109600
     21 N           -2.0880    -0.0110     1.2110 nv         1 FJE      -0.979200
     22 H1           1.9320     0.0000     3.3480 ha         1 FJE       0.154000
     23 H3          -0.5290    -0.0060     3.3440 ha         1 FJE       0.151000
     24 H4           4.1380     0.4880    -3.7060 ha         1 FJE       0.173000
     25 H5           5.4700    -2.8950    -5.9210 h4         1 FJE       0.038100
     26 H6           1.7180    -2.7550    -0.5310 h4         1 FJE       0.180000
     27 H7          -2.5920     0.8540     1.2230 hn         1 FJE       0.434800
     28 H8          -2.5850    -0.8790     1.2200 hn         1 FJE       0.434800
     29 H2           2.8540    -4.4340    -2.0760 hn         1 FJE       0.310700
@<TRIPOS>BOND
     1     2     6 ar
     2     2     3 ar
     3     6    20 ar
     4     7     3 1
     5     3     8 ar
     6    20    21 1
     7    20     1 ar
     8     8     1 ar
     9     8     9 1
    10     1    19 1
    11    17     4 1
    12    17    10 2
    13     4    16 1
    14     9    10 1
    15     9    18 2
    16    10    11 1
    17    16    11 ar
    18    16     5 ar
    19    11    12 ar
    20     5    15 ar
    21    12    13 ar
    22    15    13 ar
    23    13    14 1
    24     2    22 1
    25     4    29 1
    26     6    23 1
    27    12    24 1
    28    15    25 1
    29    17    26 1
    30    21    27 1
    31    21    28 1
@<TRIPOS>SUBSTRUCTURE
     1 FJE         1 TEMP              0 ****  ****    0 ROOT
