@<TRIPOS>MOLECULE
FJG
   76    80     1     0     0
SMALL
bcc


@<TRIPOS>ATOM
      1 C10          0.0000     0.0000     0.0000 ca         1 FJG      -0.052300
      2 C13         -0.0900    -0.7810    -2.4460 c3         1 FJG       0.046900
      3 C15         -2.2770     0.0030    -1.2460 cx         1 FJG      -0.076900
      4 C20          4.3690     0.8420     0.5010 cc         1 FJG       0.329600
      5 C21          3.8200     1.9200    -0.3960 c3         1 FJG      -0.066700
      6 C22          3.5120     3.1670     0.4350 c3         1 FJG      -0.048700
      7 C24          4.5070     4.9940     1.8180 c3         1 FJG      -0.022900
      8 C26          2.5150     5.4580     0.3840 c3         1 FJG      -0.022900
      9 C28          7.4130    -0.6850     1.7480 c          1 FJG       0.489600
     10 C01         -1.1920     1.4620     6.4900 c3         1 FJG      -0.012100
     11 C02         -0.8320     0.0220     6.1180 c3         1 FJG      -0.036300
     12 N03         -0.0900     0.0150     4.8550 ns         1 FJG      -0.194900
     13 C04         -0.7560     0.0150     3.6830 c          1 FJG       0.611700
     14 O05         -1.9710     0.0200     3.6730 o          1 FJG      -0.650100
     15 C06         -0.0080     0.0080     2.4080 ca         1 FJG      -0.154600
     16 C07          1.3850     0.0010     2.4150 ca         1 FJG      -0.077000
     17 C08          2.0820     0.0000     1.2080 ca         1 FJG       0.013000
     18 C09          1.3810     0.0000     0.0000 ca         1 FJG      -0.068000
     19 C11         -0.6970     0.0070     1.1910 ca         1 FJG      -0.046000
     20 C12         -0.7490     0.0000    -1.3080 cx         1 FJG      -0.081700
     21 C14         -1.5280     1.2650    -1.6760 cx         1 FJG      -0.076900
     22 C16          3.5600    -0.0070     1.2070 cd         1 FJG      -0.057400
     23 S17          4.5930    -1.1100     2.1150 ss         1 FJG      -0.314300
     24 C18          6.0190    -0.3170     1.4510 cd         1 FJG       0.420900
     25 N19          5.6480     0.6480     0.6540 nc         1 FJG      -0.484000
     26 C23          4.8160     3.7470     0.9870 c3         1 FJG      -0.026400
     27 C25          3.8180     6.0370     0.9370 c3         1 FJG      -0.025400
     28 C27          2.8230     4.2110    -0.4470 c3         1 FJG      -0.026400
     29 O29          8.3270    -0.0690     1.2340 o          1 FJG      -0.623100
     30 N30          7.6750    -1.7040     2.5900 ns         1 FJG      -0.128900
     31 C31          9.0630    -2.0700     2.8870 cy         1 FJG      -0.049300
     32 C32          9.5150    -1.6760     4.3030 cy         1 FJG      -0.029400
     33 C33          8.9970    -3.0480     4.7650 cy         1 FJG      -0.163700
     34 C34          9.2330    -3.5340     3.3250 cy         1 FJG      -0.029400
     35 C35          9.8870    -3.7180     5.7810 c          1 FJG       0.987600
     36 O36         10.8970    -3.1700     6.1540 o          1 FJG      -0.892800
     37 O37          9.5560    -4.9230     6.2710 o          1 FJG      -0.892800
     38 C38          0.0350    -0.5890     7.2210 c3         1 FJG       0.560900
     39 F39          0.3650    -1.9050     6.8810 f          1 FJG      -0.202300
     40 F40          1.2060     0.1630     7.3640 f          1 FJG      -0.202300
     41 F41         -0.6730    -0.5820     8.4270 f          1 FJG      -0.202300
     42 H131        -0.8320    -1.0160    -3.2000 hc         1 FJG       0.007367
     43 H132         0.3330    -1.6990    -2.0570 hc         1 FJG       0.007367
     44 H133         0.6960    -0.1810    -2.8880 hc         1 FJG       0.007367
     45 H151        -2.7790    -0.5370    -2.0400 hc         1 FJG       0.050450
     46 H152        -2.7050     0.0290    -0.2500 hc         1 FJG       0.050450
     47 H212         4.5520     2.1650    -1.1570 hc         1 FJG       0.031700
     48 H211         2.9110     1.5680    -0.8700 hc         1 FJG       0.031700
     49 H221         2.8580     2.9050     1.2580 hc         1 FJG       0.031700
     50 H242         5.4300     5.4050     2.2070 hc         1 FJG       0.011450
     51 H241         3.8510     4.7260     2.6380 hc         1 FJG       0.011450
     52 H262         1.8630     5.1900     1.2060 hc         1 FJG       0.011450
     53 H261         2.0300     6.1970    -0.2420 hc         1 FJG       0.011450
     54 H012        -0.7490     1.7090     7.4470 hc         1 FJG       0.023033
     55 H021        -1.7380    -0.5610     6.0080 h1         1 FJG       0.085700
     56 H031         0.9100    -0.0310     4.8610 hn         1 FJG       0.196500
     57 H071         1.9240     0.0010     3.3550 ha         1 FJG       0.116000
     58 H091         1.9220    -0.0030    -0.9390 ha         1 FJG       0.126000
     59 H111        -1.7800     0.0070     1.1840 ha         1 FJG       0.137000
     60 H142        -1.4970     2.0630    -0.9430 hc         1 FJG       0.050450
     61 H141        -1.5710     1.4970    -2.7330 hc         1 FJG       0.050450
     62 H231         5.3010     3.0080     1.6140 hc         1 FJG       0.020950
     63 H232         5.4670     4.0150     0.1650 hc         1 FJG       0.020950
     64 H251         4.4720     6.3020     0.1150 hc         1 FJG       0.011200
     65 H252         3.5980     6.9180     1.5280 hc         1 FJG       0.011200
     66 H272         1.8990     3.8010    -0.8360 hc         1 FJG       0.020950
     67 H271         3.4790     4.4780    -1.2670 hc         1 FJG       0.020950
     68 H301         6.9230    -2.2220     2.9980 hn         1 FJG       0.175500
     69 H311         9.7730    -1.7760     2.1240 h1         1 FJG       0.056700
     70 H322         8.9480    -0.8490     4.7140 hc         1 FJG       0.029950
     71 H321        10.5900    -1.5760     4.3930 hc         1 FJG       0.029950
     72 H331         7.9480    -3.0310     5.0340 hc         1 FJG       0.025700
     73 H342        10.2360    -3.9100     3.1640 hc         1 FJG       0.029950
     74 H341         8.4440    -4.1800     2.9610 hc         1 FJG       0.029950
     75 H011        -0.8130     2.1360     5.7320 hc         1 FJG       0.023033
     76 H013        -2.2690     1.5590     6.5550 hc         1 FJG       0.023033
@<TRIPOS>BOND
     1     1    18 ar  
     2     1    19 ar  
     3     1    20 1   
     4     2    20 1   
     5     2    42 1   
     6     2    43 1   
     7     2    44 1   
     8     3    20 1   
     9     3    21 1   
    10     3    45 1   
    11     3    46 1   
    12     4     5 1   
    13     4    22 2   
    14     4    25 1   
    15     5     6 1   
    16     5    47 1   
    17     5    48 1   
    18     6    26 1   
    19     6    28 1   
    20     6    49 1   
    21     7    26 1   
    22     7    27 1   
    23     7    50 1   
    24     7    51 1   
    25     8    27 1   
    26     8    28 1   
    27     8    52 1   
    28     8    53 1   
    29     9    24 1   
    30     9    29 2   
    31     9    30 1   
    32    10    11 1   
    33    10    54 1   
    34    10    75 1   
    35    10    76 1   
    36    11    12 1   
    37    11    38 1   
    38    11    55 1   
    39    12    13 1   
    40    12    56 1   
    41    13    14 2   
    42    13    15 1   
    43    15    16 ar  
    44    15    19 ar  
    45    16    17 ar  
    46    16    57 1   
    47    17    18 ar  
    48    17    22 1   
    49    18    58 1   
    50    19    59 1   
    51    20    21 1   
    52    21    60 1   
    53    21    61 1   
    54    22    23 1   
    55    23    24 1   
    56    24    25 2   
    57    26    62 1   
    58    26    63 1   
    59    27    64 1   
    60    27    65 1   
    61    28    66 1   
    62    28    67 1   
    63    30    31 1   
    64    30    68 1   
    65    31    32 1   
    66    31    34 1   
    67    31    69 1   
    68    32    33 1   
    69    32    70 1   
    70    32    71 1   
    71    33    34 1   
    72    33    35 1   
    73    33    72 1   
    74    34    73 1   
    75    34    74 1   
    76    35    36 1   
    77    35    37 1   
    78    38    39 1   
    79    38    40 1   
    80    38    41 1   
@<TRIPOS>SUBSTRUCTURE
     1 FJG         1 TEMP              0 ****  ****    0 ROOT
