@<TRIPOS>MOLECULE
FJH
   57    61     1     0     0
SMALL
bcc


@<TRIPOS>ATOM
      1 C1           0.0000     0.0000     0.0000 ca         1 FJH       0.396600
      2 N2           1.3120     0.0000     0.0000 nb         1 FJH      -0.574000
      3 C3          -0.0850     0.0020     2.3860 ca         1 FJH      -0.038000
      4 C4           1.3230     0.0010     2.3830 ca         1 FJH      -0.175300
      5 C5           2.0540     0.0010     3.5790 ca         1 FJH       0.005000
      6 C6           3.4380     0.0000     3.5310 ca         1 FJH      -0.176600
      7 C8           6.3010     0.1210     5.9270 ca         1 FJH      -0.073400
      8 C9           5.7050     0.6470     7.0650 ca         1 FJH      -0.157000
      9 C11          6.1650     0.8000    10.6000 c          1 FJH       0.590700
     10 C12          5.4630     1.2870    11.8040 ca         1 FJH      -0.166600
     11 C13          4.4580     2.2510    11.6870 ca         1 FJH      -0.085000
     12 C14          3.8060     2.7040    12.8110 ca         1 FJH      -0.113000
     13 C15          4.1420     2.2060    14.0650 ca         1 FJH       0.093100
     14 C16          3.5860     1.8860    16.3540 c3         1 FJH       0.167400
     15 C17          5.0560     1.4920    16.5510 c3         1 FJH       0.170400
     16 C19          5.7960     0.7800    13.0630 ca         1 FJH      -0.033000
     17 C10          6.4380     0.7600     8.2380 ca         1 FJH      -0.075400
     18 C18          5.1400     1.2420    14.1880 ca         1 FJH       0.055100
     19 C20          7.7640     0.3480     8.2690 ca         1 FJH      -0.117000
     20 C22          7.6270    -0.2900     5.9650 ca         1 FJH      -0.140300
     21 C23          8.2750    -0.8600     4.7300 c3         1 FJH       0.066200
     22 C24          4.1070    -0.0010     2.2940 ca         1 FJH      -0.084000
     23 C25          3.4150    -0.0010     1.1260 ca         1 FJH      -0.144300
     24 C26          2.0070     0.0000     1.1400 ca         1 FJH       0.395600
     25 O1           7.0350    -0.0430    10.7040 o          1 FJH      -0.640100
     26 O3           5.4750     0.7390    15.4080 os         1 FJH      -0.295900
     27 O2           3.4890     2.6730    15.1620 os         1 FJH      -0.298900
     28 N1           5.8420     1.2900     9.3870 ns         1 FJH      -0.031100
     29 C21          8.3540    -0.1750     7.1340 ca         1 FJH      -0.065000
     30 N            5.5640    -0.0010     4.7440 ns         1 FJH      -0.024100
     31 C7           4.2160     0.0000     4.7870 c          1 FJH       0.588700
     32 O            3.6420     0.0020     5.8580 o          1 FJH      -0.642100
     33 C2          -0.7330     0.0010     1.1840 ca         1 FJH      -0.222300
     34 C           -0.7330     0.0060    -1.3170 c3         1 FJH      -0.046400
     35 H1          -0.6390     0.0020     3.3170 ha         1 FJH       0.114000
     36 H2           1.5400     0.0020     4.5330 ha         1 FJH       0.130000
     37 H3           4.6710     0.9680     7.0380 ha         1 FJH       0.167000
     38 H4           4.1670     2.6130    10.7080 ha         1 FJH       0.105000
     39 H5           3.0270     3.4520    12.7180 ha         1 FJH       0.118000
     40 H6           3.2480     2.4690    17.2030 h1         1 FJH       0.026200
     41 H7           2.9800     0.9940    16.2520 h1         1 FJH       0.026200
     42 H8           5.1390     0.8690    17.4340 h1         1 FJH       0.027700
     43 H9           5.6560     2.3910    16.6220 h1         1 FJH       0.027700
     44 H10          6.5330    -0.0090    13.1510 ha         1 FJH       0.140000
     45 H11          8.3370     0.4370     9.1840 ha         1 FJH       0.145000
     46 H12          9.2880    -1.1660     4.9610 hc         1 FJH       0.006033
     47 H13          8.2940    -0.1060     3.9520 hc         1 FJH       0.006033
     48 H14          7.7080    -1.7170     4.3880 hc         1 FJH       0.006033
     49 H15          5.1900    -0.0010     2.2720 ha         1 FJH       0.101000
     50 H16          3.9470    -0.0020     0.1830 ha         1 FJH       0.120000
     51 H17          5.2080     2.0610     9.3110 hn         1 FJH       0.173500
     52 H18          9.3890    -0.4960     7.1610 ha         1 FJH       0.107000
     53 H19          6.0370    -0.0440     3.8630 hn         1 FJH       0.178500
     54 H20         -1.8160     0.0010     1.1510 ha         1 FJH       0.117000
     55 H21         -1.3620    -0.8730    -1.3840 hc         1 FJH       0.016033
     56 H22         -0.0170     0.0010    -2.1290 hc         1 FJH       0.016033
     57 H23         -1.3480     0.8960    -1.3830 hc         1 FJH       0.016033
@<TRIPOS>BOND
     1     1     2 ar  
     2     1    33 ar  
     3     1    34 1   
     4     2    24 ar  
     5     3     4 ar  
     6     3    33 ar  
     7     3    35 1   
     8     4     5 ar  
     9     4    24 ar  
    10     5     6 ar  
    11     5    36 1   
    12     6    22 ar  
    13     6    31 1   
    14     7     8 ar  
    15     7    20 ar  
    16     7    30 1   
    17     8    17 ar  
    18     8    37 1   
    19     9    10 1   
    20     9    25 2   
    21     9    28 1   
    22    10    11 ar  
    23    10    16 ar  
    24    11    12 ar  
    25    11    38 1   
    26    12    13 ar  
    27    12    39 1   
    28    13    18 ar  
    29    13    27 1   
    30    14    15 1   
    31    14    27 1   
    32    14    40 1   
    33    14    41 1   
    34    15    26 1   
    35    15    42 1   
    36    15    43 1   
    37    16    18 ar  
    38    16    44 1   
    39    17    19 ar  
    40    17    28 1   
    41    18    26 1   
    42    19    29 ar  
    43    19    45 1   
    44    20    21 1   
    45    20    29 ar  
    46    21    46 1   
    47    21    47 1   
    48    21    48 1   
    49    22    23 ar  
    50    22    49 1   
    51    23    24 ar  
    52    23    50 1   
    53    28    51 1   
    54    29    52 1   
    55    30    31 1   
    56    30    53 1   
    57    31    32 2   
    58    33    54 1   
    59    34    55 1   
    60    34    56 1   
    61    34    57 1   
@<TRIPOS>SUBSTRUCTURE
     1 FJH         1 TEMP              0 ****  ****    0 ROOT
