@<TRIPOS>MOLECULE
molecule
   75    80     1     0     0
SMALL
bcc


@<TRIPOS>ATOM
      1 CAH          0.0000     0.0000     0.0000 c3         1 FJI       0.121300
      2 CBA          1.5310     0.0000     0.0000 c3         1 FJI       0.139900
      3 OBN          2.0020     0.0000     1.3500 os         1 FJI      -0.424600
      4 CBI          1.5500    -1.1180     2.1180 c3         1 FJI       0.139900
      5 CBB          0.0190    -1.1300     2.1400 c3         1 FJI       0.121300
      6 NAC         -0.4860    -1.1630     0.7580 n3         1 FJI      -0.723600
      7 CBG         -1.9530    -1.2320     0.7350 c3         1 FJI       0.144800
      8 CBH         -2.4280    -1.5130    -0.6920 c3         1 FJI       0.112000
      9 NAA         -3.8910    -1.5830    -0.7140 ns         1 FJI      -0.586900
     10 CAX         -4.5370    -1.8230    -1.8720 c          1 FJI       0.675700
     11 OBP         -3.9050    -1.9830    -2.8980 o          1 FJI      -0.599100
     12 CBE         -6.0130    -1.8930    -1.8950 ca         1 FJI      -0.154600
     13 CAE         -6.6870    -2.1450    -3.0830 ca         1 FJI      -0.022000
     14 CBC         -8.0880    -2.2130    -3.1090 ca         1 FJI      -0.150600
     15 CAP         -8.7060    -2.4910    -4.4220 c          1 FJI       0.600300
     16 OBQ         -8.2170    -3.3380    -5.1440 o          1 FJI      -0.498100
     17 CAG         -6.7490    -1.7100    -0.7210 ca         1 FJI      -0.086000
     18 CAW         -8.1210    -1.7760    -0.7540 ca         1 FJI      -0.150000
     19 CAO         -8.8120    -2.0240    -1.9420 ca         1 FJI      -0.064300
     20 CBD        -10.3120    -2.0610    -1.8070 c3         1 FJI       0.202700
     21 OBO        -10.9950    -2.5660    -2.9270 os         1 FJI      -0.343900
     22 CAF        -11.0430    -1.8670    -4.0750 ca         1 FJI       0.175100
     23 CAL        -12.2100    -1.2400    -4.4800 ca         1 FJI      -0.200000
     24 CAK         -9.9000    -1.7620    -4.8680 ca         1 FJI      -0.225600
     25 CAJ         -9.9060    -1.0000    -6.0370 ca         1 FJI      -0.040000
     26 CAQ        -11.0580    -0.3720    -6.4210 ca         1 FJI      -0.192000
     27 CAV        -12.2150    -0.4940    -5.6520 ca         1 FJI       0.202600
     28 NAB        -13.3840     0.1360    -6.0640 nu         1 FJI      -0.677000
     29 CAN        -13.3210     1.3690    -6.7200 ca         1 FJI       0.176600
     30 CBF        -14.3460     1.7570    -7.5710 ca         1 FJI      -0.163000
     31 CAS        -12.2340     2.2100    -6.5160 ca         1 FJI      -0.176000
     32 CAU        -12.1700     3.4290    -7.1640 ca         1 FJI      -0.118000
     33 CBL        -13.1870     3.8150    -8.0180 ca         1 FJI       0.062900
     34 FBR        -13.1210     5.0080    -8.6500 f          1 FJI      -0.146900
     35 CAI        -14.2800     2.9810    -8.2210 ca         1 FJI       0.056600
     36 NAD        -15.3130     3.3740    -9.0810 ns         1 FJI      -0.471100
     37 CAM        -16.5860     3.0250    -8.8080 c          1 FJI       0.681700
     38 OBM        -16.8290     2.3050    -7.8600 o          1 FJI      -0.600100
     39 CBK        -17.6850     3.5190    -9.6630 ca         1 FJI      -0.152600
     40 CAR        -19.0050     3.1600    -9.3850 ca         1 FJI      -0.083000
     41 CAY        -20.0270     3.6240   -10.1870 ca         1 FJI      -0.137500
     42 CAZ        -19.7460     4.4440   -11.2660 ca         1 FJI      -0.101000
     43 CAT        -18.4400     4.8020   -11.5480 ca         1 FJI      -0.137500
     44 CBJ        -17.4090     4.3510   -10.7500 ca         1 FJI      -0.083000
     45 H1          -0.3600     0.9100     0.4650 h1         1 FJI       0.044700
     46 H2          -0.3600    -0.0590    -1.0200 h1         1 FJI       0.044700
     47 H3           1.8920    -0.8860    -0.5080 h1         1 FJI       0.055200
     48 H4           1.8920     0.8860    -0.5080 h1         1 FJI       0.055200
     49 H5           1.9250    -1.0350     3.1310 h1         1 FJI       0.055200
     50 H6           1.9110    -2.0350     1.6670 h1         1 FJI       0.055200
     51 H7          -0.3270    -2.0090     2.6710 h1         1 FJI       0.044700
     52 H8          -0.3410    -0.2370     2.6350 h1         1 FJI       0.044700
     53 H10         -2.3640    -0.2880     1.0730 h1         1 FJI       0.036700
     54 H11         -2.2870    -2.0270     1.3900 h1         1 FJI       0.036700
     55 H12         -2.0160    -2.4560    -1.0300 h1         1 FJI       0.063200
     56 H13         -2.0940    -0.7170    -1.3470 h1         1 FJI       0.063200
     57 H14         -4.4100    -1.4730     0.1350 hn         1 FJI       0.311500
     58 H15         -6.1260    -2.2910    -3.9980 ha         1 FJI       0.174000
     59 H16         -6.2410    -1.4650     0.2040 ha         1 FJI       0.127000
     60 H17         -8.6800    -1.6330     0.1630 ha         1 FJI       0.134000
     61 H18        -10.6540    -1.0450    -1.6440 h1         1 FJI       0.067700
     62 H19        -10.5510    -2.6950    -0.9620 h1         1 FJI       0.067700
     63 H20        -13.1120    -1.3310    -3.8870 ha         1 FJI       0.149000
     64 H21         -9.0070    -0.9060    -6.6330 ha         1 FJI       0.148000
     65 H22        -11.0760     0.2130    -7.3320 ha         1 FJI       0.151000
     66 H23        -14.2710    -0.2940    -5.8920 hn         1 FJI       0.458800
     67 H24        -15.1970     1.1040    -7.7280 ha         1 FJI       0.176000
     68 H25        -11.4360     1.9110    -5.8470 ha         1 FJI       0.150000
     69 H26        -11.3220     4.0830    -7.0030 ha         1 FJI       0.149000
     70 H27        -15.1000     3.8750    -9.9210 hn         1 FJI       0.335500
     71 H28        -19.2270     2.5190    -8.5410 ha         1 FJI       0.142000
     72 H29        -21.0520     3.3470    -9.9720 ha         1 FJI       0.137000
     73 H30        -20.5520     4.8030   -11.8950 ha         1 FJI       0.134000
     74 H31        -18.2270     5.4460   -12.3930 ha         1 FJI       0.137000
     75 H32        -16.3870     4.6330   -10.9720 ha         1 FJI       0.142000
@<TRIPOS>BOND
     1     4     3 1
     2     4     5 1
     3     3     2 1
     4     5     6 1
     5    11    10 2
     6     2     1 1
     7     8     7 1
     8     8     9 1
     9     6     7 1
    10     6     1 1
    11    10     9 1
    12    10    12 1
    13    16    15 2
    14    13    12 ar
    15    13    14 ar
    16    12    17 ar
    17    15    14 1
    18    15    24 1
    19    14    19 ar
    20    17    18 ar
    21    19    18 ar
    22    19    20 1
    23    25    24 ar
    24    25    26 ar
    25    24    22 ar
    26    20    21 1
    27    26    27 ar
    28    22    21 1
    29    22    23 ar
    30    27    23 ar
    31    27    28 1
    32    31    32 ar
    33    31    29 ar
    34    28    29 1
    35    32    33 ar
    36    29    30 ar
    37    33    34 1
    38    33    35 ar
    39    30    35 ar
    40    35    36 1
    41    38    37 2
    42    36    37 1
    43    37    39 1
    44    44    39 ar
    45    44    43 ar
    46    39    40 ar
    47    43    42 ar
    48    40    41 ar
    49    42    41 ar
    50     1    45 1
    51     1    46 1
    52     2    47 1
    53     2    48 1
    54     4    49 1
    55     4    50 1
    56     5    51 1
    57     5    52 1
    58     7    53 1
    59     7    54 1
    60     8    55 1
    61     8    56 1
    62     9    57 1
    63    13    58 1
    64    17    59 1
    65    18    60 1
    66    20    61 1
    67    20    62 1
    68    23    63 1
    69    25    64 1
    70    26    65 1
    71    28    66 1
    72    30    67 1
    73    31    68 1
    74    32    69 1
    75    36    70 1
    76    40    71 1
    77    41    72 1
    78    42    73 1
    79    43    74 1
    80    44    75 1
@<TRIPOS>SUBSTRUCTURE
     1 FJI         1 TEMP              0 ****  ****    0 ROOT
