@<TRIPOS>MOLECULE
FJP
   45    44     1     0     0
SMALL
bcc


@<TRIPOS>ATOM
      1 CAA         0.1840   -0.6380    0.3500 c3        1 FJP     -0.115400
      2 CAB         2.3340   -0.9800    1.5210 c3        1 FJP     -0.115400
      3 CAC         6.4030   -0.6870   -2.9510 c3        1 FJP     -0.047900
      4 CAD         5.3250   -5.9690    1.5350 c3        1 FJP     -0.018900
      5 OAE         0.3490   -3.3480    1.9180 o         1 FJP     -0.932167
      6 OAF         0.5730   -5.0530    3.7790 o         1 FJP     -0.932167
      7 OAG        -1.3970   -5.2050    2.1340 o         1 FJP     -0.932167
      8 CAH         2.2850   -0.1350   -0.8450 c2        1 FJP     -0.298200
      9 CAI         6.3140   -2.2620   -1.0540 c2        1 FJP     -0.158200
     10 CAJ         3.1570   -5.0820    0.6950 c2        1 FJP     -0.079200
     11 CAK         3.7480   -0.0940   -1.0670 c3        1 FJP     -0.007200
     12 CAL         5.6710   -3.0500    0.0240 c3        1 FJP     -0.059200
     13 CAM         2.2980   -5.7630    1.7210 c3        1 FJP      0.228600
     14 CAN         4.1910   -1.2780   -1.9160 c3        1 FJP     -0.046200
     15 CAO         5.2480   -4.4330   -0.4500 c3        1 FJP     -0.002200
     16 OAP         0.9690   -5.7210    1.3870 os        1 FJP     -0.563200
     17 CAQ         1.6640   -0.5380    0.2770 c2        1 FJP     -0.001400
     18 CAR         5.6700   -1.4570   -1.9150 c2        1 FJP     -0.137400
     19 CAS         4.4960   -5.1660    0.6090 c2        1 FJP     -0.271400
     20 PAT        -0.0070   -4.7260    2.4290 p5        1 FJP      1.328900
     21 HAA        -0.3010   -0.4380   -0.6340 hc        1 FJP      0.068200
     22 HAAA       -0.2140    0.0890    1.1000 hc        1 FJP      0.068200
     23 HAAB       -0.0790   -1.6860    0.7100 hc        1 FJP      0.068200
     24 HAB         3.4380   -1.0840    1.4120 hc        1 FJP      0.068200
     25 HABA        1.8880   -1.9850    1.8250 hc        1 FJP      0.068200
     26 HABB        2.1230   -0.2530    2.3440 hc        1 FJP      0.068200
     27 HAC         7.5100   -0.7780   -2.8330 hc        1 FJP      0.023033
     28 HACA        6.1270   -1.0560   -3.9700 hc        1 FJP      0.023033
     29 HACB        6.1260    0.3950   -2.8870 hc        1 FJP      0.023033
     30 HAD         5.6600   -6.9170    1.0420 hc        1 FJP      0.013367
     31 HADA        6.2400   -5.4010    1.8390 hc        1 FJP      0.013367
     32 HADB        4.7530   -6.2360    2.4580 hc        1 FJP      0.013367
     33 HAH         1.6880    0.1460   -1.7280 ha        1 FJP      0.091000
     34 HAI         7.4090   -2.3730   -1.1240 ha        1 FJP      0.089000
     35 HAJ         2.5890   -4.4550   -0.0160 ha        1 FJP      0.136000
     36 HAK         4.3080   -0.1060   -0.0950 hc        1 FJP      0.020700
     37 HAKA        4.0280    0.8600   -1.5920 hc        1 FJP      0.020700
     38 HAL         6.3870   -3.1590    0.8820 hc        1 FJP      0.056200
     39 HALA        4.7640   -2.5130    0.4190 hc        1 FJP      0.056200
     40 HAM         2.6380   -6.8430    1.7860 h1        1 FJP      0.015700
     41 HAMA        2.4770   -5.2760    2.7280 h1        1 FJP      0.015700
     42 HAN         3.6930   -2.2090   -1.5250 hc        1 FJP      0.053200
     43 HANA        3.8320   -1.1310   -2.9690 hc        1 FJP      0.053200
     44 HAO         4.6090   -4.3220   -1.3660 hc        1 FJP      0.017200
     45 HAOA        6.1600   -5.0160   -0.7480 hc        1 FJP      0.017200
@<TRIPOS>BOND
     1    1   17 1   
     2    1   21 1   
     3    1   22 1   
     4    1   23 1   
     5    2   17 1   
     6    2   24 1   
     7    2   25 1   
     8    2   26 1   
     9    3   18 1   
    10    3   27 1   
    11    3   28 1   
    12    3   29 1   
    13    4   19 1   
    14    4   30 1   
    15    4   31 1   
    16    4   32 1   
    17    5   20 1   
    18    6   20 1   
    19    7   20 1   
    20    8   11 1   
    21    8   17 2   
    22    8   33 1   
    23    9   12 1   
    24    9   18 2   
    25    9   34 1   
    26   10   13 1   
    27   10   19 2   
    28   10   35 1   
    29   11   14 1   
    30   11   36 1   
    31   11   37 1   
    32   12   15 1   
    33   12   38 1   
    34   12   39 1   
    35   13   16 1   
    36   13   40 1   
    37   13   41 1   
    38   14   18 1   
    39   14   42 1   
    40   14   43 1   
    41   15   19 1   
    42   15   44 1   
    43   15   45 1   
    44   16   20 1   
@<TRIPOS>SUBSTRUCTURE
     1 FJP         1 TEMP              0 ****  ****    0 ROOT
