@<TRIPOS>MOLECULE
molecule
   45    44     1     0     0
SMALL
bcc


@<TRIPOS>ATOM
      1 CAA          0.0000     0.0000     0.0000 c3         1 FJP      -0.054400
      2 CAB          2.2590     0.0000     1.3060 c3         1 FJP      -0.054400
      3 CAC          6.3980    -0.6290    -3.0050 c3         1 FJP      -0.045900
      4 CAD          5.3140    -5.3420     2.1920 c3         1 FJP      -0.113900
      5 OAE          0.7190    -6.1690     3.9930 o          1 FJP      -0.898167
      6 OAF         -0.0680    -7.8570     2.2910 o          1 FJP      -0.898167
      7 OAG         -1.0900    -5.4380     2.3930 o          1 FJP      -0.898167
      8 CAH          2.1620     0.0000    -1.1340 c2         1 FJP      -0.209200
      9 CAI          6.1670    -2.2360    -1.1820 c2         1 FJP      -0.161200
     10 CAJ          3.5340    -5.5870     0.5380 c2         1 FJP      -0.537200
     11 CAK          3.6640    -0.1260    -1.1370 c3         1 FJP      -0.039200
     12 CAL          5.3600    -2.9360    -0.1190 c3         1 FJP      -0.055200
     13 CAM          2.7270    -6.2860     1.6010 c3         1 FJP       0.206600
     14 CAN          4.0740    -1.3020    -2.0250 c3         1 FJP      -0.040200
     15 CAO          5.5450    -4.4480    -0.2500 c3         1 FJP      -0.017200
     16 OAP          1.3890    -5.7850     1.5910 os         1 FJP      -0.573200
     17 CAQ          1.5060     0.0000     0.0000 c2         1 FJP      -0.101400
     18 CAR          5.5760    -1.4290    -2.0290 c2         1 FJP      -0.153400
     19 CAS          4.7380    -5.1480     0.8130 c2         1 FJP      -0.081400
     20 PAT          0.2480    -6.3090     2.5980 p5         1 FJP       1.159900
     21 HAA         -0.3610     0.9900    -0.2530 hc         1 FJP       0.043533
     22 HAAA        -0.3610    -0.7140    -0.7300 hc         1 FJP       0.043533
     23 HAAB        -0.3610    -0.2760     0.9830 hc         1 FJP       0.043533
     24 HAB          1.5730     0.2080     2.1180 hc         1 FJP       0.043533
     25 HABA         3.0290     0.7620     1.2800 hc         1 FJP       0.043533
     26 HABB         2.7170    -0.9700     1.4590 hc         1 FJP       0.043533
     27 HAC          5.7420    -0.1420    -3.7160 hc         1 FJP       0.028033
     28 HACA         6.9690     0.1190    -2.4690 hc         1 FJP       0.028033
     29 HACB         7.0750    -1.2900    -3.5330 hc         1 FJP       0.028033
     30 HAD          4.7640    -4.7370     2.9020 hc         1 FJP       0.033367
     31 HADA         6.3560    -5.0430     2.1930 hc         1 FJP       0.033367
     32 HADB         5.2380    -6.3860     2.4710 hc         1 FJP       0.033367
     33 HAH          1.6190     0.0000    -2.0720 ha         1 FJP       0.116000
     34 HAI          7.2470    -2.3260    -1.1860 ha         1 FJP       0.104000
     35 HAJ          3.0080    -5.0810     1.3390 ha         1 FJP       0.420000
     36 HAK          4.0130    -0.2980    -0.1260 hc         1 FJP       0.039700
     37 HAKA         4.1020     0.7870    -1.5200 hc         1 FJP       0.039700
     38 HAL          5.6960    -2.6150     0.8600 hc         1 FJP       0.058200
     39 HALA         4.3120    -2.6890    -0.2400 hc         1 FJP       0.058200
     40 HAM          2.7150    -7.3510     1.4030 h1         1 FJP       0.044700
     41 HAMA         3.1730    -6.1040     2.5710 h1         1 FJP       0.044700
     42 HAN          3.6360    -2.2160    -1.6410 hc         1 FJP       0.061700
     43 HANA         3.7240    -1.1310    -3.0360 hc         1 FJP       0.061700
     44 HAO          6.5930    -4.6960    -0.1290 hc         1 FJP       0.036700
     45 HAOA         5.2090    -4.7700    -1.2280 hc         1 FJP       0.036700
@<TRIPOS>BOND
     1     1    17 1
     2     1    21 1
     3     1    22 1
     4     1    23 1
     5    17     2 1
     6     2    24 1
     7     2    25 1
     8     2    26 1
     9    18     3 1
    10     3    27 1
    11     3    28 1
    12     3    29 1
    13    19     4 1
    14     4    30 1
    15     4    31 1
    16     4    32 1
    17     5    20 1
    18    20     6 1
    19    20     7 1
    20    11     8 1
    21     8    17 2
    22     8    33 1
    23    12     9 1
    24     9    18 2
    25     9    34 1
    26    19    10 2
    27    10    13 1
    28    10    35 1
    29    11    14 1
    30    11    36 1
    31    11    37 1
    32    15    12 1
    33    12    38 1
    34    12    39 1
    35    13    16 1
    36    13    40 1
    37    13    41 1
    38    14    18 1
    39    14    42 1
    40    14    43 1
    41    15    19 1
    42    15    44 1
    43    15    45 1
    44    16    20 1
@<TRIPOS>SUBSTRUCTURE
     1 FJP         1 TEMP              0 ****  ****    0 ROOT
