@<TRIPOS>MOLECULE
FJY
   64    69     1     0     0
SMALL
bcc


@<TRIPOS>ATOM
      1 C26          0.0000     0.0000     0.0000 c3         1 FJY       0.094300
      2 C27          1.5320     0.0000     0.0000 c3         1 FJY       0.212900
      3 O1           2.0030     0.0000     1.3500 os         1 FJY      -0.410600
      4 C28          1.5490    -1.1180     2.1200 c3         1 FJY       0.212900
      5 C29          0.0190    -1.1290     2.1400 c3         1 FJY       0.094300
      6 N4          -0.4850    -1.1620     0.7590 nh         1 FJY      -0.358000
      7 C22         -1.8790    -1.2270     0.7370 ca         1 FJY       0.063600
      8 C23         -2.5510    -1.2670    -0.4750 ca         1 FJY      -0.187000
      9 C19         -3.9450    -1.3320    -0.5030 ca         1 FJY       0.075600
     10 C21         -2.5930    -1.2570     1.9290 ca         1 FJY      -0.217000
     11 C20         -3.9720    -1.3230     1.9020 ca         1 FJY      -0.005000
     12 C18         -4.6430    -1.3560     0.6950 ca         1 FJY      -0.193300
     13 C17         -6.1230    -1.4280     0.3860 c3         1 FJY       0.000300
     14 C24         -6.7260    -2.7110     0.9610 c3         1 FJY       0.011900
     15 C25         -6.8450    -0.2020     0.9470 c3         1 FJY       0.011900
     16 C16         -6.1970    -1.4420    -1.1490 c3         1 FJY       0.169800
     17 N2          -4.8050    -1.3790    -1.6030 nh         1 FJY      -0.233400
     18 C7          -4.4000    -1.3680    -2.9290 ca         1 FJY       0.069600
     19 C8          -4.2480    -0.1780    -3.6170 ca         1 FJY      -0.183600
     20 C11         -4.5220     1.1360    -2.9310 c3         1 FJY       0.041200
     21 C1          -4.1250    -2.5750    -3.6180 ca         1 FJY      -0.158300
     22 C6          -4.2520    -3.8180    -2.9840 ca         1 FJY      -0.058000
     23 C5          -3.9800    -4.9600    -3.6750 ca         1 FJY      -0.122000
     24 C4          -3.5740    -4.9080    -5.0090 ca         1 FJY       0.114900
     25 F1          -3.3110    -6.0560    -5.6700 f          1 FJY      -0.125900
     26 C3          -3.4400    -3.7140    -5.6550 ca         1 FJY      -0.179300
     27 C2          -3.7130    -2.5170    -4.9720 ca         1 FJY       0.392600
     28 N1          -3.5900    -1.3350    -5.5840 nb         1 FJY      -0.547000
     29 C9          -3.8370    -0.2000    -4.9540 cp         1 FJY       0.455800
     30 C10         -3.6830     1.0810    -5.6860 cp         1 FJY      -0.274800
     31 C12         -3.0420     2.1690    -5.0850 ca         1 FJY      -0.067000
     32 C13         -2.9220     3.3420    -5.8090 ca         1 FJY      -0.226300
     33 C14         -3.4370     3.4010    -7.0920 ca         1 FJY       0.412200
     34 N3          -4.0370     2.3580    -7.6320 nb         1 FJY      -0.585000
     35 C15         -4.1700     1.2190    -6.9840 ca         1 FJY       0.439200
     36 H1          -0.3610     0.9100     0.4640 h1         1 FJY       0.027200
     37 H2          -0.3600    -0.0600    -1.0200 h1         1 FJY       0.027200
     38 H3           1.8920     0.8860    -0.5080 h1         1 FJY       0.014200
     39 H4           1.8920    -0.8860    -0.5080 h1         1 FJY       0.014200
     40 H5           1.9230    -1.0340     3.1330 h1         1 FJY       0.014200
     41 H6           1.9100    -2.0350     1.6700 h1         1 FJY       0.014200
     42 H7          -0.3410    -0.2350     2.6340 h1         1 FJY       0.027200
     43 H8          -0.3280    -2.0070     2.6710 h1         1 FJY       0.027200
     44 H9          -1.9910    -1.2660    -1.4020 ha         1 FJY       0.122000
     45 H10         -2.0660    -1.3200     2.8740 ha         1 FJY       0.126000
     46 H11         -4.5300    -1.3470     2.8300 ha         1 FJY       0.100000
     47 H12         -7.7220    -2.8540     0.5580 hc         1 FJY       0.007700
     48 H13         -6.7820    -2.6330     2.0400 hc         1 FJY       0.007700
     49 H14         -6.1030    -3.5560     0.6910 hc         1 FJY       0.007700
     50 H15         -6.2970     0.6940     0.6800 hc         1 FJY       0.007700
     51 H16         -7.8440    -0.1500     0.5320 hc         1 FJY       0.007700
     52 H17         -6.9060    -0.2800     2.0260 hc         1 FJY       0.007700
     53 H18         -6.6460    -2.3690    -1.4820 h1         1 FJY       0.024200
     54 H19         -6.7300    -0.5650    -1.4950 h1         1 FJY       0.024200
     55 H20         -4.9630     1.8280    -3.6380 hc         1 FJY       0.022033
     56 H21         -3.5930     1.5470    -2.5540 hc         1 FJY       0.022033
     57 H22         -5.2060     0.9770    -2.1070 hc         1 FJY       0.022033
     58 H23         -4.5660    -3.8710    -1.9490 ha         1 FJY       0.122000
     59 H24         -4.0800    -5.9200    -3.1830 ha         1 FJY       0.121000
     60 H25         -3.1240    -3.6890    -6.6910 ha         1 FJY       0.136000
     61 H26         -2.6480     2.0950    -4.0790 ha         1 FJY       0.121000
     62 H27         -2.4310     4.2060    -5.3760 ha         1 FJY       0.114000
     63 H28         -3.3480     4.3180    -7.6610 h4         1 FJY      -0.020900
     64 H29         -4.6690     0.3840    -7.4610 h4         1 FJY      -0.007900
@<TRIPOS>BOND
     1     1     2 1   
     2     1     6 1   
     3     1    36 1   
     4     1    37 1   
     5     2     3 1   
     6     2    38 1   
     7     2    39 1   
     8     3     4 1   
     9     4     5 1   
    10     4    40 1   
    11     4    41 1   
    12     5     6 1   
    13     5    42 1   
    14     5    43 1   
    15     6     7 1   
    16     7     8 ar  
    17     7    10 ar  
    18     8     9 ar  
    19     8    44 1   
    20     9    12 ar  
    21     9    17 1   
    22    10    11 ar  
    23    10    45 1   
    24    11    12 ar  
    25    11    46 1   
    26    12    13 1   
    27    13    14 1   
    28    13    15 1   
    29    13    16 1   
    30    14    47 1   
    31    14    48 1   
    32    14    49 1   
    33    15    50 1   
    34    15    51 1   
    35    15    52 1   
    36    16    17 1   
    37    16    53 1   
    38    16    54 1   
    39    17    18 1   
    40    18    19 ar  
    41    18    21 ar  
    42    19    20 1   
    43    19    29 ar  
    44    20    55 1   
    45    20    56 1   
    46    20    57 1   
    47    21    22 ar  
    48    21    27 ar  
    49    22    23 ar  
    50    22    58 1   
    51    23    24 ar  
    52    23    59 1   
    53    24    25 1   
    54    24    26 ar  
    55    26    27 ar  
    56    26    60 1   
    57    27    28 ar  
    58    28    29 ar  
    59    29    30 1   
    60    30    31 ar  
    61    30    35 ar  
    62    31    32 ar  
    63    31    61 1   
    64    32    33 ar  
    65    32    62 1   
    66    33    34 ar  
    67    33    63 1   
    68    34    35 ar  
    69    35    64 1   
@<TRIPOS>SUBSTRUCTURE
     1 FJY         1 TEMP              0 ****  ****    0 ROOT
