@<TRIPOS>MOLECULE
molecule
   64    69     1     0     0
SMALL
bcc


@<TRIPOS>ATOM
      1 C26          0.0000     0.0000     0.0000 c3         1 FJY       0.126300
      2 C27          1.5320     0.0000     0.0000 c3         1 FJY       0.136400
      3 O1           2.0030     0.0000     1.3500 os         1 FJY      -0.423600
      4 C28          1.5490    -1.1180     2.1200 c3         1 FJY       0.136400
      5 C29          0.0190    -1.1290     2.1400 c3         1 FJY       0.126300
      6 N4          -0.4850    -1.1620     0.7590 nh         1 FJY      -0.594000
      7 C22         -1.8790    -1.2270     0.7370 ca         1 FJY       0.143600
      8 C23         -2.5510    -1.2670    -0.4750 ca         1 FJY      -0.206000
      9 C19         -3.9450    -1.3320    -0.5030 ca         1 FJY       0.206600
     10 C21         -2.5930    -1.2570     1.9290 ca         1 FJY      -0.226000
     11 C20         -3.9720    -1.3230     1.9020 ca         1 FJY      -0.047000
     12 C18         -4.6430    -1.3560     0.6950 ca         1 FJY      -0.178300
     13 C17         -6.1230    -1.4280     0.3860 c3         1 FJY      -0.021700
     14 C24         -6.7260    -2.7110     0.9610 c3         1 FJY      -0.078100
     15 C25         -6.8450    -0.2020     0.9470 c3         1 FJY      -0.078100
     16 C16         -6.1970    -1.4420    -1.1490 c3         1 FJY       0.248800
     17 N2          -4.8050    -1.3790    -1.6030 nh         1 FJY      -0.620400
     18 C7          -4.4000    -1.3680    -2.9290 ca         1 FJY       0.213600
     19 C8          -4.2480    -0.1780    -3.6170 ca         1 FJY      -0.201600
     20 C11         -4.5220     1.1360    -2.9310 c3         1 FJY      -0.046800
     21 C1          -4.1250    -2.5750    -3.6180 ca         1 FJY      -0.174300
     22 C6          -4.2520    -3.8180    -2.9840 ca         1 FJY      -0.075000
     23 C5          -3.9800    -4.9600    -3.6750 ca         1 FJY      -0.165000
     24 C4          -3.5740    -4.9080    -5.0090 ca         1 FJY       0.146900
     25 F1          -3.3110    -6.0560    -5.6700 f          1 FJY      -0.136900
     26 C3          -3.4400    -3.7140    -5.6550 ca         1 FJY      -0.215300
     27 C2          -3.7130    -2.5170    -4.9720 ca         1 FJY       0.444600
     28 N1          -3.5900    -1.3350    -5.5840 nb         1 FJY      -0.676000
     29 C9          -3.8370    -0.2000    -4.9540 cp         1 FJY       0.504800
     30 C10         -3.6830     1.0810    -5.6860 cp         1 FJY      -0.274800
     31 C12         -3.0420     2.1690    -5.0850 ca         1 FJY      -0.079000
     32 C13         -2.9220     3.3420    -5.8090 ca         1 FJY      -0.262300
     33 C14         -3.4370     3.4010    -7.0920 ca         1 FJY       0.429200
     34 N3          -4.0370     2.3580    -7.6320 nb         1 FJY      -0.693000
     35 C15         -4.1700     1.2190    -6.9840 ca         1 FJY       0.458200
     36 H1          -0.3610     0.9100     0.4640 h1         1 FJY       0.051950
     37 H2          -0.3600    -0.0600    -1.0200 h1         1 FJY       0.051950
     38 H3           1.8920     0.8860    -0.5080 h1         1 FJY       0.056200
     39 H4           1.8920    -0.8860    -0.5080 h1         1 FJY       0.056200
     40 H5           1.9230    -1.0340     3.1330 h1         1 FJY       0.056200
     41 H6           1.9100    -2.0350     1.6700 h1         1 FJY       0.056200
     42 H7          -0.3410    -0.2350     2.6340 h1         1 FJY       0.051950
     43 H8          -0.3280    -2.0070     2.6710 h1         1 FJY       0.051950
     44 H9          -1.9910    -1.2660    -1.4020 ha         1 FJY       0.142000
     45 H10         -2.0660    -1.3200     2.8740 ha         1 FJY       0.138000
     46 H11         -4.5300    -1.3470     2.8300 ha         1 FJY       0.130000
     47 H12         -7.7220    -2.8540     0.5580 hc         1 FJY       0.039533
     48 H13         -6.7820    -2.6330     2.0400 hc         1 FJY       0.039533
     49 H14         -6.1030    -3.5560     0.6910 hc         1 FJY       0.039533
     50 H15         -6.2970     0.6940     0.6800 hc         1 FJY       0.039533
     51 H16         -7.8440    -0.1500     0.5320 hc         1 FJY       0.039533
     52 H17         -6.9060    -0.2800     2.0260 hc         1 FJY       0.039533
     53 H18         -6.6460    -2.3690    -1.4820 h1         1 FJY       0.050700
     54 H19         -6.7300    -0.5650    -1.4950 h1         1 FJY       0.050700
     55 H20         -4.9630     1.8280    -3.6380 hc         1 FJY       0.051700
     56 H21         -3.5930     1.5470    -2.5540 hc         1 FJY       0.051700
     57 H22         -5.2060     0.9770    -2.1070 hc         1 FJY       0.051700
     58 H23         -4.5660    -3.8710    -1.9490 ha         1 FJY       0.152000
     59 H24         -4.0800    -5.9200    -3.1830 ha         1 FJY       0.148000
     60 H25         -3.1240    -3.6890    -6.6910 ha         1 FJY       0.166000
     61 H26         -2.6480     2.0950    -4.0790 ha         1 FJY       0.145000
     62 H27         -2.4310     4.2060    -5.3760 ha         1 FJY       0.140000
     63 H28         -3.3480     4.3180    -7.6610 h4         1 FJY       0.024100
     64 H29         -4.6690     0.3840    -7.4610 h4         1 FJY       0.040100
@<TRIPOS>BOND
     1    25    24 1
     2    24    23 ar
     3    24    26 ar
     4    23    22 ar
     5    26    27 ar
     6    22    21 ar
     7    15    13 1
     8    27    21 ar
     9    27    28 ar
    10    21    18 ar
    11    28    29 ar
    12    16    13 1
    13    16    17 1
    14    13    14 1
    15    13    12 1
    16    18    17 1
    17    18    19 ar
    18    17     9 1
    19    29    19 ar
    20    29    30 1
    21    12     9 ar
    22    12    11 ar
    23    19    20 1
    24     9     8 ar
    25    11    10 ar
    26    30    35 ar
    27    30    31 ar
    28    35    34 ar
    29     8     7 ar
    30    31    32 ar
    31    10     7 ar
    32     7     6 1
    33    34    33 ar
    34    32    33 ar
    35     6     5 1
    36     6     1 1
    37     5     4 1
    38     4     3 1
    39     1     2 1
    40     2     3 1
    41     1    36 1
    42     1    37 1
    43     2    38 1
    44     2    39 1
    45     4    40 1
    46     4    41 1
    47     5    42 1
    48     5    43 1
    49     8    44 1
    50    10    45 1
    51    11    46 1
    52    14    47 1
    53    14    48 1
    54    14    49 1
    55    15    50 1
    56    15    51 1
    57    15    52 1
    58    16    53 1
    59    16    54 1
    60    20    55 1
    61    20    56 1
    62    20    57 1
    63    22    58 1
    64    23    59 1
    65    26    60 1
    66    31    61 1
    67    32    62 1
    68    33    63 1
    69    35    64 1
@<TRIPOS>SUBSTRUCTURE
     1 FJY         1 TEMP              0 ****  ****    0 ROOT
