@<TRIPOS>MOLECULE
FJZ
   44    46     1     0     0
SMALL
bcc


@<TRIPOS>ATOM
      1 C1           0.0000     0.0000     0.0000 cc         1 FJZ       0.329200
      2 N1           1.3420     0.0000     0.0000 nc         1 FJZ      -0.615000
      3 S1          -6.2080    -2.5980     1.0310 s          1 FJZ      -0.733400
      4 C2           1.7720     0.0000     1.2320 cd         1 FJZ       0.208400
      5 N2           0.7070    -0.0000     2.0620 na         1 FJZ       0.258100
      6 C3          -0.4170    -0.0000     1.2800 cd         1 FJZ      -0.440900
      7 N3          -4.6120    -0.5270     1.4950 n          1 FJZ      -0.032800
      8 C4          -1.8450     0.0000     1.7590 c3         1 FJZ       0.060600
      9 N4          -6.5360    -0.0800     0.2500 ns         1 FJZ      -0.072900
     10 C5          -2.7050     0.8290     0.8010 c3         1 FJZ      -0.038400
     11 C6          -2.3680    -1.4370     1.8050 c3         1 FJZ      -0.038400
     12 C7          -4.1490     0.8560     1.3100 c3         1 FJZ       0.010000
     13 C8          -3.8100    -1.4360     2.3250 c3         1 FJZ       0.010000
     14 C10         -7.8280    -0.5160    -0.2840 c3         1 FJZ      -0.010300
     15 C11         -8.7580     0.6910    -0.4170 c3         1 FJZ      -0.043400
     16 C12         -7.6220    -1.1570    -1.6580 c3         1 FJZ      -0.043400
     17 C13        -10.1090     0.2350    -0.9750 c3         1 FJZ      -0.015400
     18 C14         -8.9720    -1.6130    -2.2150 c3         1 FJZ      -0.015400
     19 C15         -9.9020    -0.4060    -2.3500 c3         1 FJZ      -0.030400
     20 H1          -0.6360     0.0000    -0.8770 h4         1 FJZ       0.006100
     21 H2           2.8110     0.0000     1.5380 h5         1 FJZ       0.024100
     22 HN2          0.7340    -0.0000     3.0630 hn         1 FJZ       0.119700
     23 H4          -1.8970     0.4320     2.7510 hc         1 FJZ       0.021700
     24 HN4         -6.2420     0.8700     0.1360 hn         1 FJZ       0.168500
     25 H5          -2.6790     0.3810    -0.1850 hc         1 FJZ       0.034200
     26 H5A         -2.3190     1.8400     0.7540 hc         1 FJZ       0.034200
     27 H6          -2.3460    -1.8600     0.8080 hc         1 FJZ       0.034200
     28 H6A         -1.7470    -2.0260     2.4680 hc         1 FJZ       0.034200
     29 H7          -4.7790     1.3560     0.5850 h1         1 FJZ       0.045700
     30 H7A         -4.1890     1.3810     2.2570 h1         1 FJZ       0.045700
     31 H8          -4.2180    -2.4370     2.2630 h1         1 FJZ       0.045700
     32 H8A         -3.8230    -1.0940     3.3530 h1         1 FJZ       0.045700
     33 H10         -8.2750    -1.2410     0.3870 h1         1 FJZ       0.092700
     34 H11         -8.3150     1.4130    -1.0920 hc         1 FJZ       0.023950
     35 H11A        -8.9050     1.1410     0.5570 hc         1 FJZ       0.023950
     36 H12         -6.9650    -2.0130    -1.5620 hc         1 FJZ       0.023950
     37 H12A        -7.1820    -0.4310    -2.3310 hc         1 FJZ       0.023950
     38 H13        -10.7650     1.0910    -1.0720 hc         1 FJZ       0.019450
     39 H13A       -10.5500    -0.4910    -0.3020 hc         1 FJZ       0.019450
     40 H14         -8.8250    -2.0650    -3.1890 hc         1 FJZ       0.019450
     41 H14A        -9.4140    -2.3350    -1.5400 hc         1 FJZ       0.019450
     42 H15        -10.8590    -0.7310    -2.7430 hc         1 FJZ       0.014200
     43 H15A        -9.4570     0.3180    -3.0220 hc         1 FJZ       0.014200
     44 C9          -5.7520    -0.9510     0.9170 cs         1 FJZ       0.300400
@<TRIPOS>BOND
     1     1     2 1   
     2     1     6 2   
     3     1    20 1   
     4     2     4 2   
     5     3    44 2   
     6     4     5 1   
     7     4    21 1   
     8     5     6 1   
     9     5    22 1   
    10     6     8 1   
    11     7    12 1   
    12     7    13 1   
    13     7    44 1   
    14     8    10 1   
    15     8    11 1   
    16     8    23 1   
    17     9    14 1   
    18     9    24 1   
    19     9    44 1   
    20    10    12 1   
    21    10    25 1   
    22    10    26 1   
    23    11    13 1   
    24    11    27 1   
    25    11    28 1   
    26    12    29 1   
    27    12    30 1   
    28    13    31 1   
    29    13    32 1   
    30    14    15 1   
    31    14    16 1   
    32    14    33 1   
    33    15    17 1   
    34    15    34 1   
    35    15    35 1   
    36    16    18 1   
    37    16    36 1   
    38    16    37 1   
    39    17    19 1   
    40    17    38 1   
    41    17    39 1   
    42    18    19 1   
    43    18    40 1   
    44    18    41 1   
    45    19    42 1   
    46    19    43 1   
@<TRIPOS>SUBSTRUCTURE
     1 FJZ         1 TEMP              0 ****  ****    0 ROOT
