@<TRIPOS>MOLECULE
FK1
   16    17     1     0     0
SMALL
bcc


@<TRIPOS>ATOM
      1 C          -0.0150   -0.0090    0.0040 ca        1 FK1     -0.008900
      2 N          -0.4460   -0.0120    3.7200 na        1 FK1     -0.192400
      3 BR         -0.9350   -0.0120   -1.6310 br        1 FK1     -0.097100
      4 C1          1.3950   -0.0020   -0.0040 ca        1 FK1     -0.135000
      5 C2          2.1180    0.0010    1.1790 ca        1 FK1     -0.082000
      6 C3          1.4350   -0.0020    2.3950 ca        1 FK1     -0.083800
      7 C4          1.8410   -0.0010    3.7810 cc        1 FK1     -0.189200
      8 C5          0.6790   -0.0070    4.5490 cd        1 FK1     -0.100100
      9 C6         -0.0130   -0.0090    2.3920 ca        1 FK1     -0.051200
     10 C7         -0.7380   -0.0120    1.1910 ca        1 FK1     -0.117000
     11 HN         -1.3850   -0.0160    4.0140 hn        1 FK1      0.300700
     12 H1          1.9300    0.0010   -0.9660 ha        1 FK1      0.144000
     13 H2          3.2180    0.0070    1.1630 ha        1 FK1      0.140000
     14 H4          2.8630    0.0040    4.1460 ha        1 FK1      0.159000
     15 H5          0.5650   -0.0080    5.6350 h4        1 FK1      0.167000
     16 H7         -1.8370   -0.0180    1.1970 ha        1 FK1      0.146000
@<TRIPOS>BOND
     1    1    3 1   
     2    1    4 ar  
     3    1   10 ar  
     4    2    8 1   
     5    2    9 1   
     6    2   11 1   
     7    4    5 ar  
     8    4   12 1   
     9    5    6 ar  
    10    5   13 1   
    11    6    7 1   
    12    6    9 ar  
    13    7    8 2   
    14    7   14 1   
    15    8   15 1   
    16    9   10 ar  
    17   10   16 1   
@<TRIPOS>SUBSTRUCTURE
     1 FK1         1 TEMP              0 ****  ****    0 ROOT
