@<TRIPOS>MOLECULE
molecule
   16    17     1     0     0
SMALL
bcc


@<TRIPOS>ATOM
      1 C            0.0000     0.0000     0.0000 ca         1 FK1       0.001100
      2 N           -0.4170    -0.0040     3.7130 na         1 FK1      -0.180400
      3 Br          -0.9360     0.0010    -1.6430 br         1 FK1      -0.099100
      4 C1           1.3890     0.0000     0.0000 ca         1 FK1      -0.136000
      5 C2           2.0830     0.0000     1.1770 ca         1 FK1      -0.076000
      6 C3           1.3900    -0.0020     2.3900 ca         1 FK1      -0.095800
      7 C4           1.8010    -0.0030     3.7960 cc         1 FK1      -0.199200
      8 C5           0.6790    -0.0050     4.5330 cd         1 FK1      -0.096100
      9 C6          -0.0170    -0.0030     2.3960 ca         1 FK1      -0.041200
     10 C7          -0.7030     0.0040     1.1860 ca         1 FK1      -0.116000
     11 HN          -1.3680    -0.0050     4.0250 hn         1 FK1       0.297700
     12 H1           1.9260     0.0000    -0.9410 ha         1 FK1       0.142000
     13 H2           3.1660    -0.0000     1.1700 ha         1 FK1       0.137000
     14 H4           2.8170    -0.0030     4.1710 ha         1 FK1       0.157000
     15 H5           0.6460    -0.0060     5.6150 h4         1 FK1       0.167000
     16 H7          -1.7830    -0.0680     1.1760 ha         1 FK1       0.138000
@<TRIPOS>BOND
     1     1     3 1
     2     1     4 ar
     3     1    10 ar
     4     2     8 1
     5     2     9 1
     6     4     5 ar
     7     5     6 ar
     8     6     7 1
     9     6     9 ar
    10     7     8 2
    11     9    10 ar
    12     2    11 1
    13     4    12 1
    14     5    13 1
    15     7    14 1
    16     8    15 1
    17    10    16 1
@<TRIPOS>SUBSTRUCTURE
     1 FK1         1 TEMP              0 ****  ****    0 ROOT
