@<TRIPOS>MOLECULE
molecule
    9     8     1     0     0
SMALL
bcc


@<TRIPOS>ATOM
      1 C1           0.0000     0.0000     0.0000 c3         1 FK2      -0.308400
      2 C2           1.5070     0.0000     0.0000 c          1 FK2       0.610900
      3 O1           2.1100     0.0000     1.0470 o          1 FK2      -0.600100
      4 C           -0.5020     1.1640    -0.8140 c          1 FK2       0.899600
      5 O            0.2830     1.9170    -1.3400 o          1 FK2      -0.847300
      6 O2          -1.8220     1.3650    -0.9550 o          1 FK2      -0.847300
      7 H1          -0.3610     0.0890     1.0170 hc         1 FK2       0.055200
      8 H2          -0.3610    -0.9250    -0.4320 hc         1 FK2       0.055200
      9 H3           2.0480    -0.0540    -0.9370 h4         1 FK2      -0.016800
@<TRIPOS>BOND
     1     3     2 2
     2     2     1 1
     3     1     4 1
     4     5     4 1
     5     4     6 1
     6     1     7 1
     7     1     8 1
     8     2     9 1
@<TRIPOS>SUBSTRUCTURE
     1 FK2         1 TEMP              0 ****  ****    0 ROOT
