@<TRIPOS>MOLECULE
molecule
   53    53     1     0     0
SMALL
bcc


@<TRIPOS>ATOM
      1 O01          0.0000     0.0000     0.0000 o          1 FK4      -0.800000
      2 P02          1.6100     0.0000     0.0000 p5         1 FK4       1.160800
      3 O03          2.1470     0.0000     1.5180 os         1 FK4      -0.584200
      4 C04          3.4980    -0.3100     1.8660 c3         1 FK4       0.216400
      5 C05          3.6680    -0.2180     3.3830 c3         1 FK4      -0.061000
      6 C06          3.3340     1.2000     3.8490 c3         1 FK4      -0.072600
      7 C07          2.7250    -1.2140     4.0630 c3         1 FK4      -0.072600
      8 C08          5.1140    -0.5490     3.7550 c3         1 FK4       0.087100
      9 O09          5.3860    -1.9160     3.4400 oh         1 FK4      -0.559800
     10 C10          6.0500     0.3410     2.9780 c          1 FK4       0.631100
     11 N11          6.1300     1.6540     3.2720 ns         1 FK4      -0.602900
     12 C12          6.9590     2.5400     2.4510 c3         1 FK4       0.127000
     13 C13          6.8740     3.9660     2.9940 c3         1 FK4      -0.176400
     14 C14          7.7280     4.8770     2.1490 c          1 FK4       0.663100
     15 N15          7.8080     6.1900     2.4420 ns         1 FK4      -0.593900
     16 C16          8.6370     7.0750     1.6200 c3         1 FK4       0.125000
     17 C17          8.5520     8.5030     2.1640 c3         1 FK4       0.002700
     18 S18          9.5770     9.5970     1.1490 ss         1 FK4      -0.309700
     19 C19          9.3020    11.1280     1.9750 c          1 FK4       0.637300
     20 C20          9.9520    12.3510     1.4900 cc         1 FK4      -0.210900
     21 C21          9.8280    13.6110     2.0360 cc         1 FK4      -0.109000
     22 C22         10.6150    14.4710     1.2640 cc         1 FK4      -0.226000
     23 C23         11.1920    13.7380     0.2820 cd         1 FK4      -0.126300
     24 N24         10.8020    12.4470     0.4120 na         1 FK4      -0.135100
     25 O25          8.5720    11.1720     2.9480 o          1 FK4      -0.527100
     26 O26          8.3420     4.4280     1.2040 o          1 FK4      -0.593100
     27 O27          6.7310    -0.1240     2.0890 o          1 FK4      -0.580100
     28 O28          2.1050    -1.2070    -0.6980 o          1 FK4      -0.800000
     29 H2           3.7350    -1.3140     1.5360 h1         1 FK4       0.038700
     30 H3           4.1660     0.3950     1.3850 h1         1 FK4       0.038700
     31 H4           3.6600     1.9120     3.1010 hc         1 FK4       0.036033
     32 H5           2.2640     1.2910     3.9910 hc         1 FK4       0.036033
     33 H6           3.8400     1.4010     4.7850 hc         1 FK4       0.036033
     34 H7           2.9960    -1.3110     5.1080 hc         1 FK4       0.036033
     35 H8           1.7060    -0.8560     3.9860 hc         1 FK4       0.036033
     36 H9           2.8080    -2.1780     3.5770 hc         1 FK4       0.036033
     37 H10          5.2600    -0.3880     4.8170 h1         1 FK4       0.026700
     38 H11          6.0570    -2.2440     4.0160 ho         1 FK4       0.393000
     39 H12          5.6670     2.0130     4.0830 hn         1 FK4       0.309500
     40 H13          7.9880     2.2020     2.4820 h1         1 FK4       0.070700
     41 H14          6.6030     2.5210     1.4280 h1         1 FK4       0.070700
     42 H15          5.8450     4.3040     2.9640 hc         1 FK4       0.062200
     43 H16          7.2300     3.9850     4.0170 hc         1 FK4       0.062200
     44 H17          7.3120     6.5580     3.2300 hn         1 FK4       0.313500
     45 H18          9.6650     6.7370     1.6510 h1         1 FK4       0.065200
     46 H19          8.2800     7.0560     0.5980 h1         1 FK4       0.065200
     47 H20          8.9090     8.5210     3.1870 h1         1 FK4       0.079200
     48 H21          7.5240     8.8400     2.1340 h1         1 FK4       0.079200
     49 H22          9.2330    13.8830     2.9000 ha         1 FK4       0.166000
     50 H23         10.7380    15.5350     1.4210 ha         1 FK4       0.153000
     51 H24         11.8610    14.1210    -0.4790 h4         1 FK4       0.168000
     52 H25         11.0800    11.6900    -0.1820 hn         1 FK4       0.308700
     53 H27          2.0780     1.1440    -0.6690 hp         1 FK4      -0.196400
@<TRIPOS>BOND
     1    22    23 2
     2    22    21 1
     3    23    24 1
     4    21    20 2
     5    24    20 1
     6    20    19 1
     7    18    19 1
     8    18    17 1
     9    19    25 2
    10    17    16 1
    11    16    15 1
    12    15    14 1
    13    14    26 2
    14    14    13 1
    15    13    12 1
    16    12    11 1
    17    11    10 1
    18    27    10 2
    19    10     8 1
    20     9     8 1
    21     8     5 1
    22    28     2 1
    23     3     4 1
    24     3     2 1
    25     5     4 1
    26     5     7 1
    27     5     6 1
    28     2     1 1
    29     4    29 1
    30     4    30 1
    31     6    31 1
    32     6    32 1
    33     6    33 1
    34     7    34 1
    35     7    35 1
    36     7    36 1
    37     8    37 1
    38     9    38 1
    39    11    39 1
    40    12    40 1
    41    12    41 1
    42    13    42 1
    43    13    43 1
    44    15    44 1
    45    16    45 1
    46    16    46 1
    47    17    47 1
    48    17    48 1
    49    21    49 1
    50    22    50 1
    51    23    51 1
    52    24    52 1
    53     2    53 1
@<TRIPOS>SUBSTRUCTURE
     1 FK4         1 TEMP              0 ****  ****    0 ROOT
