@<TRIPOS>MOLECULE
molecule
   21    21     1     0     0
SMALL
bcc


@<TRIPOS>ATOM
      1 C1           0.0000     0.0000     0.0000 c          1 FK8       0.570100
      2 C3          -2.6980     0.0140    -2.4840 ca         1 FK8      -0.141300
      3 C5          -3.4970     1.2180    -4.3940 ca         1 FK8      -0.123000
      4 C7          -3.4940    -1.1760    -4.4030 ca         1 FK8      -0.123000
      5 C4          -2.9630     1.2140    -3.1180 ca         1 FK8      -0.092000
      6 C2          -2.1230     0.0100    -1.0910 c3         1 FK8       0.212700
      7 C6          -3.7640     0.0240    -5.0350 ca         1 FK8      -0.083000
      8 C8          -2.9670    -1.1800    -3.1240 ca         1 FK8      -0.092000
      9 N1           1.3480     0.0000     0.0000 nz         1 FK8      -0.653400
     10 O1          -0.6080     0.0000     1.0520 o          1 FK8      -0.433000
     11 O2          -0.6720     0.0050    -1.1670 os         1 FK8      -0.392900
     12 H1          -3.7060     2.1580    -4.8900 ha         1 FK8       0.151000
     13 H2          -3.7040    -2.1120    -4.9050 ha         1 FK8       0.151000
     14 H3          -2.7530     2.1500    -2.6150 ha         1 FK8       0.134000
     15 H4          -2.4540     0.8950    -0.5610 h1         1 FK8       0.079700
     16 H5          -2.4600    -0.8740    -0.5630 h1         1 FK8       0.079700
     17 H6          -4.1800     0.0270    -6.0350 ha         1 FK8       0.152000
     18 H7          -2.7580    -2.1200    -2.6280 ha         1 FK8       0.134000
     19 H8           1.6820    -0.3430     0.8790 hn         1 FK8       0.490467
     20 H9           1.6820    -0.5900    -0.7370 hn         1 FK8       0.490467
     21 H13          1.6820     0.9330    -0.1420 hn         1 FK8       0.490467
@<TRIPOS>BOND
     1     3     7 ar
     2     3     5 ar
     3     7     4 ar
     4     5     2 ar
     5     4     8 ar
     6     2     8 ar
     7     2     6 1
     8     9     1 1
     9    11     1 1
    10    11     6 1
    11     1    10 2
    12     3    12 1
    13     4    13 1
    14     5    14 1
    15     6    15 1
    16     6    16 1
    17     7    17 1
    18     8    18 1
    19     9    19 1
    20     9    20 1
    21    21     9 1
@<TRIPOS>SUBSTRUCTURE
     1 FK8         1 TEMP              0 ****  ****    0 ROOT
