@<TRIPOS>MOLECULE
FK8
   21    21     1     0     0
SMALL
bcc


@<TRIPOS>ATOM
      1 C1           0.0000     0.0000     0.0000 c          1 FK8       0.427100
      2 C3          -2.6980     0.0140    -2.4840 ca         1 FK8      -0.171300
      3 C5          -3.4970     1.2180    -4.3940 ca         1 FK8      -0.093500
      4 C7          -3.4940    -1.1760    -4.4030 ca         1 FK8      -0.093500
      5 C4          -2.9630     1.2140    -3.1180 ca         1 FK8      -0.063000
      6 C2          -2.1230     0.0100    -1.0910 c3         1 FK8       0.317700
      7 C6          -3.7640     0.0240    -5.0350 ca         1 FK8      -0.052000
      8 C8          -2.9670    -1.1800    -3.1240 ca         1 FK8      -0.063000
      9 N1           1.3480     0.0000     0.0000 nz         1 FK8       0.251600
     10 O1          -0.6080     0.0000     1.0520 o          1 FK8      -0.452000
     11 O2          -0.6720     0.0050    -1.1670 os         1 FK8      -0.379900
     12 H1          -3.7060     2.1580    -4.8900 ha         1 FK8       0.118000
     13 H2          -3.7040    -2.1120    -4.9050 ha         1 FK8       0.118000
     14 H3          -2.7530     2.1500    -2.6150 ha         1 FK8       0.105000
     15 H4          -2.4540     0.8950    -0.5610 h1         1 FK8       0.031700
     16 H5          -2.4600    -0.8740    -0.5630 h1         1 FK8       0.031700
     17 H6          -4.1800     0.0270    -6.0350 ha         1 FK8       0.117000
     18 H7          -2.7580    -2.1200    -2.6280 ha         1 FK8       0.105000
     19 H8           1.6820    -0.3430     0.8790 hn         1 FK8       0.248800
     20 H9           1.6820    -0.5900    -0.7370 hn         1 FK8       0.248800
     21 H13          1.6820     0.9330    -0.1420 hn         1 FK8       0.248800
@<TRIPOS>BOND
     1     1     9 1   
     2     1    10 2   
     3     1    11 1   
     4     2     5 ar  
     5     2     6 1   
     6     2     8 ar  
     7     3     5 ar  
     8     3     7 ar  
     9     3    12 1   
    10     4     7 ar  
    11     4     8 ar  
    12     4    13 1   
    13     5    14 1   
    14     6    11 1   
    15     6    15 1   
    16     6    16 1   
    17     7    17 1   
    18     8    18 1   
    19     9    19 1   
    20     9    20 1   
    21     9    21 1   
@<TRIPOS>SUBSTRUCTURE
     1 FK8         1 TEMP              0 ****  ****    0 ROOT
