@<TRIPOS>MOLECULE
molecule
   43    43     1     0     0
SMALL
bcc


@<TRIPOS>ATOM
      1 O6           0.0000     0.0000     0.0000 oh         1 FK9      -0.605800
      2 C6           1.4290     0.0000     0.0000 c3         1 FK9       0.150400
      3 C5           1.9390     0.0000     1.4430 c3         1 FK9       0.147100
      4 O5           1.5610    -1.2200     2.0820 os         1 FK9      -0.410600
      5 C4           3.4650     0.1250     1.4440 c3         1 FK9       0.115100
      6 O4           3.8440     1.3710     0.8570 oh         1 FK9      -0.606800
      7 C3           3.9740     0.0640     2.8880 c3         1 FK9       0.131100
      8 O3           5.4020     0.1040     2.8940 oh         1 FK9      -0.597800
      9 C2           3.4950    -1.2420     3.5310 c3         1 FK9       0.114100
     10 O2           4.0630    -2.3540     2.8350 oh         1 FK9      -0.577800
     11 C1           1.9680    -1.3130     3.4490 c3         1 FK9       0.318900
     12 O1           1.4000    -0.2300     4.1900 os         1 FK9      -0.454600
     13 C7          -0.0150    -0.3270     4.3670 c3         1 FK9       0.140400
     14 C8          -0.5110     0.8770     5.1690 c3         1 FK9      -0.068400
     15 C9          -2.0260     0.7740     5.3590 c3         1 FK9       0.018700
     16 C13         -4.4000     1.9050     6.4290 c3         1 FK9       0.018700
     17 C14         -5.0540     3.0420     7.2170 c3         1 FK9      -0.069400
     18 C15         -6.5610     2.7910     7.3170 c3         1 FK9      -0.091100
     19 S1          -2.6150     2.2030     6.3100 ss         1 FK9      -0.358200
     20 H6          -0.3140     0.0450    -0.8880 ho         1 FK9       0.402000
     21 H61C         1.7900     0.8850    -0.5110 h1         1 FK9       0.036200
     22 H62C         1.7900    -0.8840    -0.5110 h1         1 FK9       0.036200
     23 H5           1.5100     0.8360     1.9820 h1         1 FK9       0.071700
     24 H4           3.8940    -0.6930     0.8770 h1         1 FK9       0.070700
     25 H1           1.6300    -2.2560     3.8620 h2         1 FK9       0.077700
     26 HA           4.5770     1.2360     0.2790 ho         1 FK9       0.412000
     27 H3           3.5800     0.9050     3.4450 h1         1 FK9       0.067700
     28 HB           5.6950     0.7580     3.5070 ho         1 FK9       0.405000
     29 H2           3.8020    -1.2650     4.5700 h1         1 FK9       0.050700
     30 HC           4.4040    -2.9740     3.4580 ho         1 FK9       0.405000
     31 H71C        -0.2500    -1.2390     4.9020 h1         1 FK9       0.037200
     32 H72C        -0.5000    -0.3410     3.3990 h1         1 FK9       0.037200
     33 H81C        -0.2760     1.7890     4.6340 hc         1 FK9       0.064700
     34 H82C        -0.0260     0.8910     6.1380 hc         1 FK9       0.064700
     35 H91C        -2.5110     0.7600     4.3910 h1         1 FK9       0.057700
     36 H92C        -2.2610    -0.1380     5.8950 h1         1 FK9       0.057700
     37 H151        -7.0240     3.5950     7.8770 hc         1 FK9       0.035700
     38 H152        -6.9870     2.7520     6.3220 hc         1 FK9       0.035700
     39 H153        -6.7370     1.8500     7.8230 hc         1 FK9       0.035700
     40 H141        -4.8770     3.9820     6.7090 hc         1 FK9       0.054200
     41 H142        -4.6280     3.0830     8.2120 hc         1 FK9       0.054200
     42 H131        -4.5760     0.9650     6.9380 h1         1 FK9       0.056200
     43 H132        -4.8260     1.8630     5.4340 h1         1 FK9       0.056200
@<TRIPOS>BOND
     1     1     2 1
     2     2     3 1
     3     3     4 1
     4     3     5 1
     5     4    11 1
     6     5     6 1
     7     5     7 1
     8     7     8 1
     9     7     9 1
    10     9    10 1
    11     9    11 1
    12    11    12 1
    13    12    13 1
    14    13    14 1
    15    14    15 1
    16    15    19 1
    17    18    17 1
    18    17    16 1
    19    16    19 1
    20     1    20 1
    21     2    21 1
    22     2    22 1
    23     3    23 1
    24     5    24 1
    25    11    25 1
    26     6    26 1
    27     7    27 1
    28     8    28 1
    29     9    29 1
    30    10    30 1
    31    13    31 1
    32    13    32 1
    33    14    33 1
    34    14    34 1
    35    15    35 1
    36    15    36 1
    37    18    37 1
    38    18    38 1
    39    18    39 1
    40    17    40 1
    41    17    41 1
    42    16    42 1
    43    16    43 1
@<TRIPOS>SUBSTRUCTURE
     1 FK9         1 TEMP              0 ****  ****    0 ROOT
