@<TRIPOS>MOLECULE
FK9
   43    43     1     0     0
SMALL
bcc


@<TRIPOS>ATOM
      1 O6         -0.0750    0.2330    0.2600 oh        1 FK9     -0.598800
      2 C6          1.2920   -0.1320    0.1610 c3        1 FK9      0.135400
      3 C5          1.8930    0.0120    1.5590 c3        1 FK9      0.141100
      4 O5          1.6010   -1.2080    2.2510 os        1 FK9     -0.443600
      5 C4          3.4170    0.1970    1.4950 c3        1 FK9      0.086100
      6 O4          3.6790    1.4030    0.8030 oh        1 FK9     -0.592800
      7 C3          3.9840    0.2410    2.9260 c3        1 FK9      0.075100
      8 O3          5.3890    0.3870    2.8740 oh        1 FK9     -0.595800
      9 C2          3.5670   -1.0070    3.7140 c3        1 FK9      0.094100
     10 O2          4.2780   -2.1430    3.2610 oh        1 FK9     -0.592800
     11 C1          2.0490   -1.2480    3.5910 c3        1 FK9      0.300900
     12 O1          1.3950   -0.2200    4.3010 os        1 FK9     -0.443600
     13 C7         -0.0180   -0.4220    4.4220 c3        1 FK9      0.132400
     14 C8         -0.5470    0.7620    5.2160 c3        1 FK9     -0.074400
     15 C9         -2.0460    0.6780    5.3280 c3        1 FK9     -0.010300
     16 C13        -4.3360    1.8440    6.2790 c3        1 FK9     -0.009300
     17 C14        -4.9370    2.9430    7.1180 c3        1 FK9     -0.072400
     18 C15        -6.4440    2.8740    7.1070 c3        1 FK9     -0.092100
     19 S1         -2.5760    2.0130    6.3610 ss        1 FK9     -0.304200
     20 H6         -0.4450    0.1460   -0.6260 ho        1 FK9      0.402000
     21 H61C        1.8300    0.5630   -0.5380 h1        1 FK9      0.045700
     22 H62C        1.3850   -1.1910   -0.1990 h1        1 FK9      0.045700
     23 H5          1.4170    0.8750    2.1020 h1        1 FK9      0.091700
     24 H4          3.8870   -0.6570    0.9290 h1        1 FK9      0.037700
     25 H1          1.7650   -2.2770    3.9540 h2        1 FK9      0.089700
     26 HA          4.5770    1.6730    1.0460 ho        1 FK9      0.424000
     27 H3          3.6100    1.1650    3.4530 h1        1 FK9      0.108700
     28 HB          5.7670   -0.4900    2.7200 ho        1 FK9      0.417000
     29 H2          3.8570   -0.8950    4.7950 h1        1 FK9      0.110700
     30 HC          3.9140   -2.3880    2.3980 ho        1 FK9      0.411000
     31 H71C       -0.4720   -0.4630    3.3960 h1        1 FK9      0.044200
     32 H72C       -0.2100   -1.3890    4.9580 h1        1 FK9      0.044200
     33 H81C       -0.0770    0.7670    6.2340 hc        1 FK9      0.069700
     34 H82C       -0.2460    1.7140    4.7040 hc        1 FK9      0.069700
     35 H91C       -2.3550   -0.2990    5.7740 h1        1 FK9      0.060200
     36 H92C       -2.5220    0.7540    4.3190 h1        1 FK9      0.060200
     37 H151       -6.7980    1.8980    7.5170 hc        1 FK9      0.035700
     38 H152       -6.8700    3.6960    7.7330 hc        1 FK9      0.035700
     39 H153       -6.8370    2.9820    6.0670 hc        1 FK9      0.035700
     40 H141       -4.5640    2.8580    8.1730 hc        1 FK9      0.055200
     41 H142       -4.6030    3.9410    6.7260 hc        1 FK9      0.055200
     42 H131       -4.6830    1.9240    5.2200 h1        1 FK9      0.058200
     43 H132       -4.6460    0.8420    6.6630 h1        1 FK9      0.058200
@<TRIPOS>BOND
     1    1    2 1   
     2    1   20 1   
     3    2    3 1   
     4    2   21 1   
     5    2   22 1   
     6    3    4 1   
     7    3    5 1   
     8    3   23 1   
     9    4   11 1   
    10    5    6 1   
    11    5    7 1   
    12    5   24 1   
    13    6   26 1   
    14    7    8 1   
    15    7    9 1   
    16    7   27 1   
    17    8   28 1   
    18    9   10 1   
    19    9   11 1   
    20    9   29 1   
    21   10   30 1   
    22   11   12 1   
    23   11   25 1   
    24   12   13 1   
    25   13   14 1   
    26   13   31 1   
    27   13   32 1   
    28   14   15 1   
    29   14   33 1   
    30   14   34 1   
    31   15   19 1   
    32   15   35 1   
    33   15   36 1   
    34   16   17 1   
    35   16   19 1   
    36   16   42 1   
    37   16   43 1   
    38   17   18 1   
    39   17   40 1   
    40   17   41 1   
    41   18   37 1   
    42   18   38 1   
    43   18   39 1   
@<TRIPOS>SUBSTRUCTURE
     1 FK9         1 TEMP              0 ****  ****    0 ROOT
