@<TRIPOS>MOLECULE
FKD
   33    33     1     0     0
SMALL
bcc


@<TRIPOS>ATOM
      1 O2          1.1820    0.0050    0.0020 oh        1 FKD     -0.655800
      2 C1         -0.9080   -0.1410    1.3310 c         1 FKD      0.932600
      3 F1         -1.9840    1.4610   -0.9690 f         1 FKD     -0.229300
      4 C2         -0.2230   -0.0010   -0.0900 c3        1 FKD      0.181600
      5 C3         -0.6160    1.2870   -0.8620 c3        1 FKD      0.142600
      6 C4          0.0220    1.2340   -2.2690 c3        1 FKD      0.069100
      7 O4         -0.3560    2.3430   -3.0670 oh        1 FKD     -0.615800
      8 C5         -0.3700   -0.0710   -2.9770 c3        1 FKD      0.088100
      9 O5          0.2860   -0.1840   -4.2320 oh        1 FKD     -0.603800
     10 C6          0.0400   -1.2760   -2.1190 c3        1 FKD      0.119100
     11 O6         -0.5350   -1.1780   -0.8170 os        1 FKD     -0.430600
     12 C7         -0.5220   -2.5820   -2.7080 c3        1 FKD      0.163100
     13 O7         -1.9360   -2.6120   -2.6570 oh        1 FKD     -0.616800
     14 C8          0.0660   -3.7840   -1.9460 c3        1 FKD      0.071100
     15 O8          1.3750   -3.9940   -2.4610 oh        1 FKD     -0.599800
     16 C9         -0.7820   -5.0440   -2.1290 c3        1 FKD      0.093400
     17 O9         -0.2400   -6.1190   -1.3800 oh        1 FKD     -0.619800
     18 O1A        -2.1510   -0.0730    1.4110 o         1 FKD     -0.792800
     19 O1B        -0.0840   -0.3030    2.2720 o         1 FKD     -0.792800
     20 HO2         1.4120   -0.3350    0.8840 ho        1 FKD      0.448000
     21 H3         -0.1920    2.1670   -0.2990 h1        1 FKD      0.070700
     22 H4          1.1410    1.3050   -2.1720 h1        1 FKD      0.105700
     23 HO4        -1.3160    2.4270   -2.9940 ho        1 FKD      0.407000
     24 H5         -1.4850   -0.0900   -3.1440 h1        1 FKD      0.056700
     25 HO5         0.2640    0.6980   -4.6270 ho        1 FKD      0.406000
     26 H6          1.1590   -1.3380   -2.0450 h1        1 FKD      0.082700
     27 H7         -0.2570   -2.6420   -3.8000 h1        1 FKD      0.092700
     28 HO7        -2.2030   -2.2830   -1.7850 ho        1 FKD      0.433000
     29 H8          0.1360   -3.5330   -0.8480 h1        1 FKD      0.065700
     30 HO8         1.6830   -4.8250   -2.0760 ho        1 FKD      0.403000
     31 H9         -0.7480   -5.3930   -3.1950 h1        1 FKD      0.062200
     32 H9A        -1.8430   -4.8430   -1.8270 h1        1 FKD      0.062200
     33 HO9        -0.2980   -5.8710   -0.4490 ho        1 FKD      0.400000
@<TRIPOS>BOND
     1    1    4 1   
     2    1   20 1   
     3    2    4 1   
     4    2   18 1   
     5    2   19 1   
     6    3    5 1   
     7    4    5 1   
     8    4   11 1   
     9    5    6 1   
    10    5   21 1   
    11    6    7 1   
    12    6    8 1   
    13    6   22 1   
    14    7   23 1   
    15    8    9 1   
    16    8   10 1   
    17    8   24 1   
    18    9   25 1   
    19   10   11 1   
    20   10   12 1   
    21   10   26 1   
    22   12   13 1   
    23   12   14 1   
    24   12   27 1   
    25   13   28 1   
    26   14   15 1   
    27   14   16 1   
    28   14   29 1   
    29   15   30 1   
    30   16   17 1   
    31   16   31 1   
    32   16   32 1   
    33   17   33 1   
@<TRIPOS>SUBSTRUCTURE
     1 FKD         1 TEMP              0 ****  ****    0 ROOT
