@<TRIPOS>MOLECULE
molecule
   33    33     1     0     0
SMALL
bcc


@<TRIPOS>ATOM
      1 O2           1.4290     0.0000     0.0000 oh         1 FKD      -0.645800
      2 C1          -0.5020     0.0000     1.4220 c          1 FKD       0.880600
      3 F1          -1.9090     1.2780    -0.6760 f          1 FKD      -0.226300
      4 C2           0.0000     0.0000     0.0000 c3         1 FKD       0.211600
      5 C3          -0.5100     1.2500    -0.7210 c3         1 FKD       0.153600
      6 C4          -0.0460     1.2130    -2.1800 c3         1 FKD       0.089100
      7 O4          -0.5800     2.3400    -2.8800 oh         1 FKD      -0.611800
      8 C5          -0.5480    -0.0790    -2.8310 c3         1 FKD       0.110100
      9 O5          -0.0620    -0.1580    -4.1730 oh         1 FKD      -0.622800
     10 C6          -0.0360    -1.2770    -2.0290 c3         1 FKD       0.146100
     11 O6          -0.4780    -1.1660    -0.6740 os         1 FKD      -0.366600
     12 C7          -0.5820    -2.5710    -2.6370 c3         1 FKD       0.165100
     13 O7          -2.0080    -2.4990    -2.7080 oh         1 FKD      -0.584800
     14 C8          -0.1730    -3.7590    -1.7640 c3         1 FKD       0.138100
     15 O8           1.2520    -3.8290    -1.6940 oh         1 FKD      -0.608800
     16 C9          -0.7190    -5.0510    -2.3730 c3         1 FKD       0.104400
     17 O9          -0.4380    -6.1460    -1.4980 oh         1 FKD      -0.611800
     18 O1A         -1.1200    -0.9480     1.8430 o          1 FKD      -0.806300
     19 O1B         -0.2620     1.0530     2.2180 o          1 FKD      -0.806300
     20 HO2          1.7430    -0.0070     0.8890 ho         1 FKD       0.431000
     21 H3          -0.1100     2.1340    -0.2380 h1         1 FKD       0.080700
     22 H4           1.0360     1.2380    -2.2150 h1         1 FKD       0.060700
     23 HO4          0.0990     2.9810    -3.0080 ho         1 FKD       0.393000
     24 H5          -1.6320    -0.0830    -2.8330 h1         1 FKD       0.073700
     25 HO5         -0.7040     0.2020    -4.7620 ho         1 FKD       0.398000
     26 H6           1.0470    -1.2900    -2.0540 h1         1 FKD       0.075700
     27 H7          -0.1770    -2.7000    -3.6340 h1         1 FKD       0.044700
     28 HO7         -2.2890    -2.6840    -3.5890 ho         1 FKD       0.384000
     29 H8          -0.5780    -3.6300    -0.7670 h1         1 FKD       0.098700
     30 HO8          1.5060    -4.3080    -0.9220 ho         1 FKD       0.416000
     31 H9          -1.7910    -4.9620    -2.5080 h1         1 FKD       0.022700
     32 H9A         -0.2480    -5.2260    -3.3330 h1         1 FKD       0.022700
     33 HO9         -0.8220    -6.9340    -1.8470 ho         1 FKD       0.392000
@<TRIPOS>BOND
     1     1     4 1
     2     1    20 1
     3     4     2 1
     4    18     2 1
     5     2    19 1
     6     5     3 1
     7    11     4 1
     8     4     5 1
     9     6     5 1
    10     5    21 1
    11     8     6 1
    12     6     7 1
    13     6    22 1
    14     7    23 1
    15    10     8 1
    16     9     8 1
    17     8    24 1
    18     9    25 1
    19    10    12 1
    20    10    11 1
    21    10    26 1
    22    14    12 1
    23    12    13 1
    24    12    27 1
    25    13    28 1
    26    15    14 1
    27    14    16 1
    28    14    29 1
    29    15    30 1
    30    17    16 1
    31    16    31 1
    32    16    32 1
    33    17    33 1
@<TRIPOS>SUBSTRUCTURE
     1 FKD         1 TEMP              0 ****  ****    0 ROOT
