@<TRIPOS>MOLECULE
FKE
   45    47     1     0     0
SMALL
bcc


@<TRIPOS>ATOM
      1 C1           0.0000     0.0000     0.0000 ca         1 FKE      -0.222500
      2 C2           1.3830     0.0000     0.0000 ca         1 FKE       0.005500
      3 C3           2.0750     0.0000     1.1930 ca         1 FKE      -0.080500
      4 C4           1.3770     0.0000     2.4020 ca         1 FKE      -0.030600
      5 C5          -0.0180     0.0010     2.3950 ca         1 FKE      -0.080500
      6 C6          -0.6980     0.0060     1.1940 ca         1 FKE       0.005500
      7 C7           2.1130    -0.0060     3.6850 c          1 FKE       0.579700
      8 C8           3.6170     1.7030     2.7830 c3         1 FKE       0.033500
      9 C9           3.7760     3.0950     3.4010 c3         1 FKE      -0.040400
     10 C10          4.7460     3.0160     4.5820 c3         1 FKE       0.010600
     11 C11          4.1800     2.0770     5.6480 c3         1 FKE      -0.040400
     12 C12          4.0250     0.6720     5.0550 c3         1 FKE       0.033500
     13 C13          4.9320     4.3910     5.1720 ca         1 FKE      -0.102300
     14 C14          3.8460     5.0760     5.6830 ca         1 FKE      -0.098000
     15 C15          4.0160     6.3370     6.2240 ca         1 FKE      -0.092500
     16 C16          5.2730     6.9120     6.2540 ca         1 FKE      -0.092000
     17 C17          6.3590     6.2270     5.7440 ca         1 FKE      -0.092500
     18 C18          6.1900     4.9640     5.2060 ca         1 FKE      -0.098000
     19 S1          -0.8770     0.0010    -1.5290 sy         1 FKE       0.937200
     20 O1          -2.1600     0.5450    -1.2550 o          1 FKE      -0.495800
     21 O2           0.0070     0.5460    -2.4980 o          1 FKE      -0.495800
     22 O3           1.7280    -0.7020     4.6030 o          1 FKE      -0.618100
     23 N2           3.2120     0.7610     3.8350 n          1 FKE      -0.125800
     24 N1          -1.1220    -1.5810    -1.9540 nz         1 FKE      -0.130500
     25 H1           1.9240    -0.0020    -0.9390 ha         1 FKE       0.127500
     26 H2           3.1590    -0.0000     1.1920 ha         1 FKE       0.145500
     27 H3          -0.5660     0.0030     3.3300 ha         1 FKE       0.145500
     28 H4          -1.7820     0.0060     1.1860 ha         1 FKE       0.127500
     29 H5           4.5610     1.3850     2.3570 h1         1 FKE       0.034950
     30 H6           2.8560     1.7340     2.0120 h1         1 FKE       0.034950
     31 H7           4.1690     3.7770     2.6570 hc         1 FKE       0.033700
     32 H8           2.8130     3.4480     3.7490 hc         1 FKE       0.033700
     33 H9           5.7000     2.6340     4.2380 hc         1 FKE       0.034700
     34 H10          3.2120     2.4400     5.9720 hc         1 FKE       0.033700
     35 H11          4.8580     2.0380     6.4920 hc         1 FKE       0.033700
     36 H12          3.5310     0.0280     5.7730 h1         1 FKE       0.034950
     37 H13          5.0010     0.2720     4.8110 h1         1 FKE       0.034950
     38 H14          2.8610     4.6250     5.6590 ha         1 FKE       0.104500
     39 H15          3.1650     6.8740     6.6240 ha         1 FKE       0.107000
     40 H16          5.4060     7.9000     6.6770 ha         1 FKE       0.108000
     41 H17          7.3440     6.6770     5.7690 ha         1 FKE       0.107000
     42 H18          7.0410     4.4260     4.8060 ha         1 FKE       0.104500
     43 H19         -0.2380    -2.0390    -2.0570 hn         1 FKE       0.314133
     44 H20         -1.6540    -2.0390    -1.2420 hn         1 FKE       0.314133
     45 H131        -1.6210    -1.6200    -2.8210 hn         1 FKE       0.314133
@<TRIPOS>BOND
     1     1     2 ar  
     2     1     6 ar  
     3     1    19 1   
     4     2     3 ar  
     5     2    25 1   
     6     3     4 ar  
     7     3    26 1   
     8     4     5 ar  
     9     4     7 1   
    10     5     6 ar  
    11     5    27 1   
    12     6    28 1   
    13     7    22 2   
    14     7    23 1   
    15     8     9 1   
    16     8    23 1   
    17     8    29 1   
    18     8    30 1   
    19     9    10 1   
    20     9    31 1   
    21     9    32 1   
    22    10    11 1   
    23    10    13 1   
    24    10    33 1   
    25    11    12 1   
    26    11    34 1   
    27    11    35 1   
    28    12    23 1   
    29    12    36 1   
    30    12    37 1   
    31    13    14 ar  
    32    13    18 ar  
    33    14    15 ar  
    34    14    38 1   
    35    15    16 ar  
    36    15    39 1   
    37    16    17 ar  
    38    16    40 1   
    39    17    18 ar  
    40    17    41 1   
    41    18    42 1   
    42    19    20 2   
    43    19    21 2   
    44    19    24 1   
    45    24    43 1   
    46    24    44 1   
    47    24    45 1   
@<TRIPOS>SUBSTRUCTURE
     1 FKE         1 TEMP              0 ****  ****    0 ROOT
