@<TRIPOS>MOLECULE
FKG
   40    42     1     0     0
SMALL
bcc


@<TRIPOS>ATOM
      1 C2           0.0000     0.0000     0.0000 cc         1 FKG       0.441600
      2 C3           0.6450     0.0010     3.5620 c3         1 FKG       0.017300
      3 C5           0.5620    -2.1390     4.8580 ca         1 FKG      -0.087000
      4 C7          -1.4160    -3.4860     4.9170 ca         1 FKG      -0.204300
      5 C9          -1.3930    -1.4470     3.6610 ca         1 FKG      -0.087000
      6 C10         -2.1440    -4.7170     5.3950 c3         1 FKG       0.639200
      7 C11         -0.0930     1.2510     4.0460 c3         1 FKG      -0.014100
      8 C12         -0.8830     0.0060    -1.2210 c3         1 FKG       0.202100
      9 C13          2.4350    -0.0020    -1.0410 c          1 FKG       0.655100
     10 O1           2.1380    -0.0020    -2.2220 o          1 FKG      -0.662500
     11 C1           1.4070     0.0000     0.0000 cc         1 FKG      -0.424900
     12 N2           3.7280    -0.0010    -0.6420 ns         1 FKG      -0.004400
     13 C14          4.0380    -0.0020     0.6790 cc         1 FKG       0.312900
     14 N3           3.1370    -0.0010     1.6180 nd         1 FKG      -0.545100
     15 C            1.8240     0.0000     1.3410 cd         1 FKG       0.017100
     16 N1           0.6960     0.0000     2.0980 na         1 FKG       0.519400
     17 N           -0.4110     0.0000     1.2390 nd         1 FKG      -0.638800
     18 O           -1.1560     1.3550    -1.6050 oh         1 FKG      -0.580800
     19 C4          -0.0810    -1.2290     4.0400 ca         1 FKG      -0.093300
     20 C8          -2.0610    -2.5760     4.0990 ca         1 FKG      -0.046000
     21 F2          -3.5100    -4.4370     5.5030 f          1 FKG      -0.207633
     22 F1          -1.9520    -5.7570     4.4800 f          1 FKG      -0.207633
     23 F           -1.6450    -5.0960     6.6450 f          1 FKG      -0.207633
     24 C6          -0.1060    -3.2670     5.2970 ca         1 FKG      -0.046000
     25 H1           1.6540     0.0010     3.9580 h1         1 FKG       0.060700
     26 H2           1.5890    -1.9670     5.1560 ha         1 FKG       0.127000
     27 H3          -1.8980    -0.7350     3.0200 ha         1 FKG       0.127000
     28 H4          -0.9330     1.4500     3.3920 hc         1 FKG       0.022033
     29 H5          -0.4510     1.0900     5.0560 hc         1 FKG       0.022033
     30 H6           0.5830     2.0970     4.0340 hc         1 FKG       0.022033
     31 H7          -1.8140    -0.5010    -0.9960 h1         1 FKG       0.005700
     32 H8          -0.3800    -0.5060    -2.0330 h1         1 FKG       0.005700
     33 H9           5.9850     0.8590     0.6450 hc         1 FKG       0.024700
     34 H10          5.9630    -0.9090     0.7150 hc         1 FKG       0.024700
     35 H11          5.5700     0.0390     2.1560 hc         1 FKG       0.024700
     36 H12          4.4600     0.0000    -1.3250 hn         1 FKG       0.183500
     37 H13         -1.9950     1.3970    -2.0320 ho         1 FKG       0.390000
     38 H14         -3.0880    -2.7480     3.8020 ha         1 FKG       0.119500
     39 H15          0.3990    -3.9800     5.9380 ha         1 FKG       0.119500
     40 C15          5.4910    -0.0030     1.0770 c3         1 FKG      -0.029400
@<TRIPOS>BOND
     1     1     8 1   
     2     1    11 1   
     3     1    17 2   
     4     2     7 1   
     5     2    16 1   
     6     2    19 1   
     7     2    25 1   
     8     3    19 ar  
     9     3    24 ar  
    10     3    26 1   
    11     4     6 1   
    12     4    20 ar  
    13     4    24 ar  
    14     5    19 ar  
    15     5    20 ar  
    16     5    27 1   
    17     6    21 1   
    18     6    22 1   
    19     6    23 1   
    20     7    28 1   
    21     7    29 1   
    22     7    30 1   
    23     8    18 1   
    24     8    31 1   
    25     8    32 1   
    26     9    10 2   
    27     9    11 1   
    28     9    12 1   
    29    11    15 2   
    30    12    13 1   
    31    12    36 1   
    32    13    14 2   
    33    13    40 1   
    34    14    15 1   
    35    15    16 1   
    36    16    17 1   
    37    18    37 1   
    38    20    38 1   
    39    24    39 1   
    40    33    40 1   
    41    34    40 1   
    42    35    40 1   
@<TRIPOS>SUBSTRUCTURE
     1 FKG         1 TEMP              0 ****  ****    0 ROOT
