@<TRIPOS>MOLECULE
molecule
   49    51     1     0     0
SMALL
bcc


@<TRIPOS>ATOM
      1 CAY          0.0000     0.0000     0.0000 c3         1 FKH      -0.055800
      2 CAZ          1.5060     0.0000     0.0000 ca         1 FKH      -0.055300
      3 CAV          2.1970     0.0000     1.1980 ca         1 FKH      -0.085000
      4 CBA          2.1990    -0.0050    -1.1960 ca         1 FKH      -0.096000
      5 CBB          3.5800    -0.0050    -1.1950 ca         1 FKH      -0.108000
      6 CAX          4.2710     0.0010     0.0020 ca         1 FKH      -0.159000
      7 CAW          3.5780     0.0000     1.1990 ca         1 FKH      -0.150300
      8 CAT          4.3320     0.0000     2.5040 c3         1 FKH       0.149300
      9 NAO          4.5760    -1.3810     2.9280 n          1 FKH      -0.368000
     10 CAP          5.7240    -2.0260     2.5290 cc         1 FKH       0.041600
     11 NAU          6.6440    -1.3800     1.7340 nz         1 FKH      -0.671400
     12 CAN          3.6780    -2.0100     3.7080 c          1 FKH       0.821500
     13 OAM          2.6720    -1.4230     4.0550 o          1 FKH      -0.591500
     14 NAF          3.8770    -3.2790     4.1120 ns         1 FKH      -0.539500
     15 CAG          4.9860    -3.9500     3.7410 c          1 FKH       0.708700
     16 OAA          5.1570    -5.1000     4.1100 o          1 FKH      -0.553500
     17 CAH          5.9430    -3.3160     2.9290 cd         1 FKH       0.080800
     18 NAI          7.1150    -4.0020     2.5330 nh         1 FKH      -0.681300
     19 CAB          7.5310    -3.9920     1.1290 c3         1 FKH       0.197100
     20 SAJ          8.0180    -4.8150     3.6590 sy         1 FKH       1.402200
     21 OAQ          9.3770    -4.5040     3.3830 o          1 FKH      -0.604300
     22 OAC          7.4050    -4.5730     4.9170 o          1 FKH      -0.604300
     23 CAK          7.8270    -6.5360     3.3350 ca         1 FKH      -0.319500
     24 CAR          8.6960    -7.1790     2.4730 ca         1 FKH      -0.023500
     25 CAS          8.5470    -8.5290     2.2210 ca         1 FKH      -0.146500
     26 CAL          7.5270    -9.2380     2.8290 ca         1 FKH      -0.054000
     27 CAE          6.6580    -8.5950     3.6910 ca         1 FKH      -0.146500
     28 CAD          6.8110    -7.2460     3.9480 ca         1 FKH      -0.023500
     29 HAY1        -0.3610     0.4730    -0.9050 hc         1 FKH       0.059700
     30 HAY2        -0.3610    -1.0200     0.0430 hc         1 FKH       0.059700
     31 HAY3        -0.3610     0.5480     0.8620 hc         1 FKH       0.059700
     32 HAV          1.6540    -0.0010     2.1360 ha         1 FKH       0.164000
     33 HBA          1.6580    -0.0100    -2.1340 ha         1 FKH       0.155000
     34 HBB          4.1220    -0.0070    -2.1330 ha         1 FKH       0.144000
     35 HAX          5.3540     0.0020     0.0020 ha         1 FKH       0.075000
     36 HAT1         5.2790     0.5110     2.3750 h1         1 FKH       0.081700
     37 HAT2         3.7470     0.5110     3.2590 h1         1 FKH       0.081700
     38 HAU1         6.3960    -1.4980     0.7720 hn         1 FKH       0.473467
     39 HAU2         7.5540    -1.7660     1.8950 hn         1 FKH       0.473467
     40 HAF          3.1960    -3.7270     4.6920 hn         1 FKH       0.397500
     41 HAB1         6.6880    -3.7190     0.5050 h1         1 FKH       0.058367
     42 HAB2         7.8830    -4.9780     0.8490 h1         1 FKH       0.058367
     43 HAB3         8.3290    -3.2720     0.9930 h1         1 FKH       0.058367
     44 HAR          9.4960    -6.6240     1.9970 ha         1 FKH       0.159000
     45 HAD          6.1300    -6.7430     4.6240 ha         1 FKH       0.159000
     46 HAS          9.2280    -9.0330     1.5450 ha         1 FKH       0.148500
     47 HAL          7.4080   -10.2960     2.6290 ha         1 FKH       0.147000
     48 HAE          5.8600    -9.1510     4.1690 ha         1 FKH       0.148500
     49 HAU3         6.6550    -0.4050     1.9620 hn         1 FKH       0.473467
@<TRIPOS>BOND
     1     1     2 1
     2     2     3 ar
     3     2     4 ar
     4     3     7 ar
     5     4     5 ar
     6     5     6 ar
     7     6     7 ar
     8     7     8 1
     9     8     9 1
    10     9    10 1
    11     9    12 1
    12    10    11 1
    13    10    17 2
    14    12    13 2
    15    12    14 1
    16    14    15 1
    17    15    16 2
    18    15    17 1
    19    17    18 1
    20    18    19 1
    21    18    20 1
    22    20    21 2
    23    20    22 2
    24    20    23 1
    25    23    24 ar
    26    23    28 ar
    27    24    25 ar
    28    25    26 ar
    29    26    27 ar
    30    27    28 ar
    31     1    29 1
    32     1    30 1
    33     1    31 1
    34     3    32 1
    35     4    33 1
    36     5    34 1
    37     6    35 1
    38     8    36 1
    39     8    37 1
    40    11    38 1
    41    11    39 1
    42    14    40 1
    43    19    41 1
    44    19    42 1
    45    19    43 1
    46    24    44 1
    47    28    45 1
    48    25    46 1
    49    26    47 1
    50    27    48 1
    51    49    11 1
@<TRIPOS>SUBSTRUCTURE
     1 FKH         1 TEMP              0 ****  ****    0 ROOT
