@<TRIPOS>MOLECULE
FKH
   49    51     1     0     0
SMALL
bcc


@<TRIPOS>ATOM
      1 CAY          0.0000     0.0000     0.0000 c3         1 FKH       0.057200
      2 CAZ          1.5060     0.0000     0.0000 ca         1 FKH      -0.058300
      3 CAV          2.1970     0.0000     1.1980 ca         1 FKH      -0.057000
      4 CBA          2.1990    -0.0050    -1.1960 ca         1 FKH      -0.067000
      5 CBB          3.5800    -0.0050    -1.1950 ca         1 FKH      -0.075000
      6 CAX          4.2710     0.0010     0.0020 ca         1 FKH      -0.137000
      7 CAW          3.5780     0.0000     1.1990 ca         1 FKH      -0.165300
      8 CAT          4.3320     0.0000     2.5040 c3         1 FKH       0.088300
      9 NAO          4.5760    -1.3810     2.9280 n          1 FKH       0.051000
     10 CAP          5.7240    -2.0260     2.5290 cc         1 FKH      -0.369400
     11 NAU          6.6440    -1.3800     1.7340 nz         1 FKH       0.236600
     12 CAN          3.6780    -2.0100     3.7080 c          1 FKH       0.595500
     13 OAM          2.6720    -1.4230     4.0550 o          1 FKH      -0.642500
     14 NAF          3.8770    -3.2790     4.1120 ns         1 FKH      -0.090500
     15 CAG          4.9860    -3.9500     3.7410 c          1 FKH       0.600700
     16 OAA          5.1570    -5.1000     4.1100 o          1 FKH      -0.590500
     17 CAH          5.9430    -3.3160     2.9290 cd         1 FKH       0.067800
     18 NAI          7.1150    -4.0020     2.5330 nh         1 FKH      -0.384300
     19 CAB          7.5310    -3.9920     1.1290 c3         1 FKH       0.241100
     20 SAJ          8.0180    -4.8150     3.6590 sy         1 FKH       1.045200
     21 OAQ          9.3770    -4.5040     3.3830 o          1 FKH      -0.552800
     22 OAC          7.4050    -4.5730     4.9170 o          1 FKH      -0.552800
     23 CAK          7.8270    -6.5360     3.3350 ca         1 FKH      -0.167500
     24 CAR          8.6960    -7.1790     2.4730 ca         1 FKH       0.003500
     25 CAS          8.5470    -8.5290     2.2210 ca         1 FKH      -0.124500
     26 CAL          7.5270    -9.2380     2.8290 ca         1 FKH      -0.022000
     27 CAE          6.6580    -8.5950     3.6910 ca         1 FKH      -0.124500
     28 CAD          6.8110    -7.2460     3.9480 ca         1 FKH       0.003500
     29 HAY1        -0.3610     0.4730    -0.9050 hc         1 FKH       0.020700
     30 HAY2        -0.3610    -1.0200     0.0430 hc         1 FKH       0.020700
     31 HAY3        -0.3610     0.5480     0.8620 hc         1 FKH       0.020700
     32 HAV          1.6540    -0.0010     2.1360 ha         1 FKH       0.138000
     33 HBA          1.6580    -0.0100    -2.1340 ha         1 FKH       0.123000
     34 HBB          4.1220    -0.0070    -2.1330 ha         1 FKH       0.114000
     35 HAX          5.3540     0.0020     0.0020 ha         1 FKH       0.058000
     36 HAT1         5.2790     0.5110     2.3750 h1         1 FKH       0.050700
     37 HAT2         3.7470     0.5110     3.2590 h1         1 FKH       0.050700
     38 HAU1         6.3960    -1.4980     0.7720 hn         1 FKH       0.231133
     39 HAU2         7.5540    -1.7660     1.8950 hn         1 FKH       0.231133
     40 HAF          3.1960    -3.7270     4.6920 hn         1 FKH       0.230500
     41 HAB1         6.6880    -3.7190     0.5050 h1         1 FKH       0.017033
     42 HAB2         7.8830    -4.9780     0.8490 h1         1 FKH       0.017033
     43 HAB3         8.3290    -3.2720     0.9930 h1         1 FKH       0.017033
     44 HAR          9.4960    -6.6240     1.9970 ha         1 FKH       0.134500
     45 HAD          6.1300    -6.7430     4.6240 ha         1 FKH       0.134500
     46 HAS          9.2280    -9.0330     1.5450 ha         1 FKH       0.119000
     47 HAL          7.4080   -10.2960     2.6290 ha         1 FKH       0.112000
     48 HAE          5.8600    -9.1510     4.1690 ha         1 FKH       0.119000
     49 HAU3         6.6550    -0.4050     1.9620 hn         1 FKH       0.231133
@<TRIPOS>BOND
     1     1     2 1   
     2     1    29 1   
     3     1    30 1   
     4     1    31 1   
     5     2     3 ar  
     6     2     4 ar  
     7     3     7 ar  
     8     3    32 1   
     9     4     5 ar  
    10     4    33 1   
    11     5     6 ar  
    12     5    34 1   
    13     6     7 ar  
    14     6    35 1   
    15     7     8 1   
    16     8     9 1   
    17     8    36 1   
    18     8    37 1   
    19     9    10 1   
    20     9    12 1   
    21    10    11 1   
    22    10    17 2   
    23    11    38 1   
    24    11    39 1   
    25    11    49 1   
    26    12    13 2   
    27    12    14 1   
    28    14    15 1   
    29    14    40 1   
    30    15    16 2   
    31    15    17 1   
    32    17    18 1   
    33    18    19 1   
    34    18    20 1   
    35    19    41 1   
    36    19    42 1   
    37    19    43 1   
    38    20    21 2   
    39    20    22 2   
    40    20    23 1   
    41    23    24 ar  
    42    23    28 ar  
    43    24    25 ar  
    44    24    44 1   
    45    25    26 ar  
    46    25    46 1   
    47    26    27 ar  
    48    26    47 1   
    49    27    28 ar  
    50    27    48 1   
    51    28    45 1   
@<TRIPOS>SUBSTRUCTURE
     1 FKH         1 TEMP              0 ****  ****    0 ROOT
