@<TRIPOS>MOLECULE
FKI
   18    17     1     0     0
SMALL
bcc


@<TRIPOS>ATOM
      1 N            0.0000     0.0000     0.0000 nz         1 FKI       0.068400
      2 CA           1.4690     0.0000     0.0000 c3         1 FKI      -0.205500
      3 C            1.9710     0.0000     1.4190 c          1 FKI       0.503100
      4 O            1.3190     0.5230     2.2910 o          1 FKI      -0.535100
      5 CB           1.9780     1.2480    -0.7220 c3         1 FKI      -0.080400
      6 CG           1.4680     1.2470    -2.1650 c3         1 FKI       0.397900
      7 F1           1.9340     0.1050    -2.8230 f          1 FKI      -0.200800
      8 F2           1.9340     2.3890    -2.8250 f          1 FKI      -0.200800
      9 CD           3.2730    -0.6440     1.7500 c          1 FKI       0.892600
     10 OE1          3.7220    -0.6450     3.0180 o          1 FKI      -0.793800
     11 OE2          3.9280    -1.1700     0.8750 o          1 FKI      -0.793800
     12 H2          -0.3340     0.9250     0.1840 hn         1 FKI       0.218800
     13 H1          -0.3340    -0.6220     0.7090 hn         1 FKI       0.218800
     14 HA           1.8300    -0.8850    -0.5100 hx         1 FKI       0.134700
     15 HB2          3.0620     1.2480    -0.7230 hc         1 FKI       0.084200
     16 HB1          1.6170     2.1330    -0.2130 hc         1 FKI       0.084200
     17 HG           0.3850     1.2460    -2.1650 h2         1 FKI      -0.011300
     18 HN3         -0.3340    -0.3030    -0.8940 hn         1 FKI       0.218800
@<TRIPOS>BOND
     1     1     2 1   
     2     1    12 1   
     3     1    13 1   
     4     1    18 1   
     5     2     3 1   
     6     2     5 1   
     7     2    14 1   
     8     3     4 2   
     9     3     9 1   
    10     5     6 1   
    11     5    15 1   
    12     5    16 1   
    13     6     7 1   
    14     6     8 1   
    15     6    17 1   
    16     9    10 1   
    17     9    11 1   
@<TRIPOS>SUBSTRUCTURE
     1 FKI         1 TEMP              0 ****  ****    0 ROOT
