@<TRIPOS>MOLECULE
molecule
   38    40     1     0     0
SMALL
bcc


@<TRIPOS>ATOM
      1 C2           0.0000     0.0000     0.0000 cc         1 FKJ       0.428600
      2 C3           0.6700     0.0000     3.5540 c3         1 FKJ       0.127300
      3 C5          -1.3670    -1.4490     3.6680 ca         1 FKJ      -0.109000
      4 C7          -1.3790    -3.4900     4.9180 ca         1 FKJ      -0.168300
      5 C9           0.5970    -2.1400     4.8490 ca         1 FKJ      -0.109000
      6 C10         -2.1030    -4.7200     5.4020 c3         1 FKJ       0.673200
      7 C11         -0.0640     1.2500     4.0450 c3         1 FKJ      -0.105100
      8 C12         -0.8850     0.0060    -1.2200 c3         1 FKJ       0.121100
      9 C13          2.4340    -0.0010    -1.0470 c          1 FKJ       0.744100
     10 O2           2.1220    -0.0010    -2.2240 o          1 FKJ      -0.607500
     11 C1           1.4090     0.0000     0.0000 cd         1 FKJ      -0.402900
     12 N2           3.7330    -0.0010    -0.6770 ns         1 FKJ      -0.561500
     13 C14          4.0790    -0.0010     0.6210 c          1 FKJ       0.829500
     14 O1           5.2610    -0.0010     0.9110 o          1 FKJ      -0.651500
     15 N3           3.1710     0.0010     1.6120 ns         1 FKJ      -0.440100
     16 C            1.8220     0.0000     1.3330 cc         1 FKJ       0.094300
     17 N1           0.7100     0.0010     2.0890 na         1 FKJ       0.076400
     18 N           -0.4050     0.0000     1.2400 nd         1 FKJ      -0.507800
     19 O           -1.1600     1.3540    -1.6030 oh         1 FKJ      -0.592800
     20 C4          -0.0530    -1.2300     4.0360 ca         1 FKJ      -0.092300
     21 C8          -0.0630    -3.2740     5.2830 ca         1 FKJ      -0.083500
     22 F2          -1.9230    -5.7590     4.4820 f          1 FKJ      -0.221633
     23 F1          -1.5910    -5.1050     6.6450 f          1 FKJ      -0.221633
     24 F           -3.4680    -4.4390     5.5260 f          1 FKJ      -0.221633
     25 C6          -2.0310    -2.5770     4.1100 ca         1 FKJ      -0.083500
     26 H1           1.6820     0.0000     3.9420 h1         1 FKJ       0.066700
     27 H2          -1.8780    -0.7340     3.0340 ha         1 FKJ       0.150500
     28 H3           1.6280    -1.9710     5.1350 ha         1 FKJ       0.150500
     29 H4           0.6150     2.0950     4.0350 hc         1 FKJ       0.059033
     30 H5          -0.4210     1.0860     5.0540 hc         1 FKJ       0.059033
     31 H6          -0.9050     1.4540     3.3930 hc         1 FKJ       0.059033
     32 H7          -0.3840    -0.5050    -2.0330 h1         1 FKJ       0.054200
     33 H8          -1.8150    -0.5020    -0.9930 h1         1 FKJ       0.054200
     34 H9           4.4470    -0.0020    -1.3790 hn         1 FKJ       0.370500
     35 H10          3.4780     0.0010     2.5640 hn         1 FKJ       0.352500
     36 H11         -2.0440     1.4150    -1.9270 ho         1 FKJ       0.406000
     37 H12          0.4470    -3.9870     5.9200 ha         1 FKJ       0.152000
     38 H13         -3.0610    -2.7490     3.8210 ha         1 FKJ       0.152000
@<TRIPOS>BOND
     1    14    13 2
     2    13    12 1
     3    13    15 1
     4    12     9 1
     5    15    16 1
     6     9    10 2
     7     9    11 1
     8    16    11 2
     9    16    17 1
    10    11     1 1
    11     5    21 ar
    12     5    20 ar
    13    17     2 1
    14    17    18 1
    15    21     4 ar
    16     2    20 1
    17     2     7 1
    18     1    18 2
    19     1     8 1
    20    20     3 ar
    21    19     8 1
    22    24     6 1
    23     4     6 1
    24     4    25 ar
    25    23     6 1
    26     6    22 1
    27     3    25 ar
    28     2    26 1
    29     3    27 1
    30     5    28 1
    31     7    29 1
    32     7    30 1
    33     7    31 1
    34     8    32 1
    35     8    33 1
    36    12    34 1
    37    15    35 1
    38    19    36 1
    39    21    37 1
    40    25    38 1
@<TRIPOS>SUBSTRUCTURE
     1 FKJ         1 TEMP              0 ****  ****    0 ROOT
