@<TRIPOS>MOLECULE
FKJ
   38    40     1     0     0
SMALL
bcc


@<TRIPOS>ATOM
      1 C2           0.0000     0.0000     0.0000 cc         1 FKJ       0.457600
      2 C3           0.6700     0.0000     3.5540 c3         1 FKJ       0.020300
      3 C5          -1.3670    -1.4490     3.6680 ca         1 FKJ      -0.086000
      4 C7          -1.3790    -3.4900     4.9180 ca         1 FKJ      -0.198300
      5 C9           0.5970    -2.1400     4.8490 ca         1 FKJ      -0.086000
      6 C10         -2.1030    -4.7200     5.4020 c3         1 FKJ       0.639200
      7 C11         -0.0640     1.2500     4.0450 c3         1 FKJ      -0.013100
      8 C12         -0.8850     0.0060    -1.2200 c3         1 FKJ       0.202100
      9 C13          2.4340    -0.0010    -1.0470 c          1 FKJ       0.667100
     10 O2           2.1220    -0.0010    -2.2240 o          1 FKJ      -0.644500
     11 C1           1.4090     0.0000     0.0000 cc         1 FKJ      -0.418900
     12 N2           3.7330    -0.0010    -0.6770 ns         1 FKJ      -0.131500
     13 C14          4.0790    -0.0010     0.6210 c          1 FKJ       0.591500
     14 O1           5.2610    -0.0010     0.9110 o          1 FKJ      -0.704500
     15 N3           3.1710     0.0010     1.6120 ns         1 FKJ       0.037900
     16 C            1.8220     0.0000     1.3330 cd         1 FKJ      -0.225700
     17 N1           0.7100     0.0010     2.0890 na         1 FKJ       0.511400
     18 N           -0.4050     0.0000     1.2400 nd         1 FKJ      -0.646800
     19 O           -1.1600     1.3540    -1.6030 oh         1 FKJ      -0.578800
     20 C4          -0.0530    -1.2300     4.0360 ca         1 FKJ      -0.101300
     21 C8          -0.0630    -3.2740     5.2830 ca         1 FKJ      -0.041500
     22 F2          -1.9230    -5.7590     4.4820 f          1 FKJ      -0.206633
     23 F1          -1.5910    -5.1050     6.6450 f          1 FKJ      -0.206633
     24 F           -3.4680    -4.4390     5.5260 f          1 FKJ      -0.206633
     25 C6          -2.0310    -2.5770     4.1100 ca         1 FKJ      -0.041500
     26 H1           1.6820     0.0000     3.9420 h1         1 FKJ       0.038700
     27 H2          -1.8780    -0.7340     3.0340 ha         1 FKJ       0.126000
     28 H3           1.6280    -1.9710     5.1350 ha         1 FKJ       0.126000
     29 H4           0.6150     2.0950     4.0350 hc         1 FKJ       0.025033
     30 H5          -0.4210     1.0860     5.0540 hc         1 FKJ       0.025033
     31 H6          -0.9050     1.4540     3.3930 hc         1 FKJ       0.025033
     32 H7          -0.3840    -0.5050    -2.0330 h1         1 FKJ       0.009200
     33 H8          -1.8150    -0.5020    -0.9930 h1         1 FKJ       0.009200
     34 H9           4.4470    -0.0020    -1.3790 hn         1 FKJ       0.210500
     35 H10          3.4780     0.0010     2.5640 hn         1 FKJ       0.181500
     36 H11         -2.0440     1.4150    -1.9270 ho         1 FKJ       0.391000
     37 H12          0.4470    -3.9870     5.9200 ha         1 FKJ       0.122000
     38 H13         -3.0610    -2.7490     3.8210 ha         1 FKJ       0.122000
@<TRIPOS>BOND
     1     1     8 1   
     2     1    11 1   
     3     1    18 2   
     4     2     7 1   
     5     2    17 1   
     6     2    20 1   
     7     2    26 1   
     8     3    20 ar  
     9     3    25 ar  
    10     3    27 1   
    11     4     6 1   
    12     4    21 ar  
    13     4    25 ar  
    14     5    20 ar  
    15     5    21 ar  
    16     5    28 1   
    17     6    22 1   
    18     6    23 1   
    19     6    24 1   
    20     7    29 1   
    21     7    30 1   
    22     7    31 1   
    23     8    19 1   
    24     8    32 1   
    25     8    33 1   
    26     9    10 2   
    27     9    11 1   
    28     9    12 1   
    29    11    16 2   
    30    12    13 1   
    31    12    34 1   
    32    13    14 2   
    33    13    15 1   
    34    15    16 1   
    35    15    35 1   
    36    16    17 1   
    37    17    18 1   
    38    19    36 1   
    39    21    37 1   
    40    25    38 1   
@<TRIPOS>SUBSTRUCTURE
     1 FKJ         1 TEMP              0 ****  ****    0 ROOT
