@<TRIPOS>MOLECULE
FKK
   47    49     1     0     0
SMALL
bcc


@<TRIPOS>ATOM
      1 C1           0.0000     0.0000     0.0000 ca         1 FKK      -0.223500
      2 N2           3.1090     0.8860     3.8890 n          1 FKK      -0.126800
      3 C2           1.3840     0.0000     0.0000 ca         1 FKK       0.006000
      4 O2          -2.1600     0.5440    -1.2550 o          1 FKK      -0.495800
      5 N3           4.3710     3.2670     4.6000 n3         1 FKK      -0.534600
      6 C3           2.0760     0.0000     1.1930 ca         1 FKK      -0.080500
      7 O3           1.8210    -0.7970     4.5530 o          1 FKK      -0.618100
      8 S1          -0.8770    -0.0000    -1.5290 sy         1 FKK       0.937200
      9 O1           0.0080     0.5430    -2.4990 o          1 FKK      -0.495800
     10 C6          -0.6980    -0.0040     1.1950 ca         1 FKK       0.006000
     11 C5          -0.0170    -0.0040     2.3950 ca         1 FKK      -0.080500
     12 C4           1.3780     0.0000     2.4010 ca         1 FKK      -0.028600
     13 C7           2.1140     0.0010     3.6840 c          1 FKK       0.577700
     14 C11          3.5350     1.8040     2.8220 c3         1 FKK       0.037000
     15 C10          3.5480     3.2300     3.3840 c3         1 FKK       0.130300
     16 C8           3.7950     0.9630     5.1900 c3         1 FKK       0.037000
     17 C9           3.7960     2.4240     5.6520 c3         1 FKK       0.130300
     18 C12          4.5500     4.6460     5.0730 c3         1 FKK       0.219100
     19 C13          5.5890     4.6710     6.1650 ca         1 FKK      -0.120300
     20 C14          6.9220     4.8530     5.8460 ca         1 FKK      -0.064500
     21 C15          7.8760     4.8760     6.8470 ca         1 FKK      -0.129000
     22 C16          7.4950     4.7180     8.1680 ca         1 FKK       0.116900
     23 F            8.4260     4.7410     9.1470 f          1 FKK      -0.122900
     24 C17          6.1600     4.5370     8.4860 ca         1 FKK      -0.129000
     25 C18          5.2070     4.5200     7.4840 ca         1 FKK      -0.064500
     26 N1          -1.1220    -1.5830    -1.9520 nz         1 FKK      -0.130500
     27 H1           1.9250    -0.0000    -0.9390 ha         1 FKK       0.127500
     28 H3           3.1600     0.0020     1.1920 ha         1 FKK       0.144500
     29 H4          -1.7810    -0.0060     1.1880 ha         1 FKK       0.127500
     30 H5          -0.5640    -0.0050     3.3300 ha         1 FKK       0.144500
     31 H6           4.5310     1.5360     2.4890 h1         1 FKK       0.040700
     32 H7           2.8400     1.7460     1.9940 h1         1 FKK       0.040700
     33 H8           2.5360     3.5310     3.6250 h1         1 FKK       0.025200
     34 H9           3.9660     3.9040     2.6460 h1         1 FKK       0.025200
     35 H10          3.2690     0.3530     5.9140 h1         1 FKK       0.040700
     36 H11          4.8150     0.6150     5.0840 h1         1 FKK       0.040700
     37 H12          4.3910     2.5160     6.5530 h1         1 FKK       0.025200
     38 H13          2.7790     2.7400     5.8510 h1         1 FKK       0.025200
     39 H14          4.8760     5.2700     4.2500 h1         1 FKK       0.016200
     40 H15          3.6100     5.0200     5.4600 h1         1 FKK       0.016200
     41 H16          7.2190     4.9760     4.8120 ha         1 FKK       0.109000
     42 H17          8.9200     5.0180     6.5960 ha         1 FKK       0.123500
     43 H18          5.8610     4.4160     9.5210 ha         1 FKK       0.123500
     44 H19          4.1630     4.3780     7.7330 ha         1 FKK       0.109000
     45 H20         -1.6230    -1.6230    -2.8180 hn         1 FKK       0.314133
     46 H21         -1.6520    -2.0410    -1.2380 hn         1 FKK       0.314133
     47 H131        -0.2380    -2.0410    -2.0580 hn         1 FKK       0.314133
@<TRIPOS>BOND
     1     1     3 ar  
     2     1     8 1   
     3     1    10 ar  
     4     2    13 1   
     5     2    14 1   
     6     2    16 1   
     7     3     6 ar  
     8     3    27 1   
     9     4     8 2   
    10     5    15 1   
    11     5    17 1   
    12     5    18 1   
    13     6    12 ar  
    14     6    28 1   
    15     7    13 2   
    16     8     9 2   
    17     8    26 1   
    18    10    11 ar  
    19    10    29 1   
    20    11    12 ar  
    21    11    30 1   
    22    12    13 1   
    23    14    15 1   
    24    14    31 1   
    25    14    32 1   
    26    15    33 1   
    27    15    34 1   
    28    16    17 1   
    29    16    35 1   
    30    16    36 1   
    31    17    37 1   
    32    17    38 1   
    33    18    19 1   
    34    18    39 1   
    35    18    40 1   
    36    19    20 ar  
    37    19    25 ar  
    38    20    21 ar  
    39    20    41 1   
    40    21    22 ar  
    41    21    42 1   
    42    22    23 1   
    43    22    24 ar  
    44    24    25 ar  
    45    24    43 1   
    46    25    44 1   
    47    26    45 1   
    48    26    46 1   
    49    26    47 1   
@<TRIPOS>SUBSTRUCTURE
     1 FKK         1 TEMP              0 ****  ****    0 ROOT
