@<TRIPOS>MOLECULE
FKL
   59    63     1     0     0
SMALL
bcc


@<TRIPOS>ATOM
      1 N1           0.0000     0.0000     0.0000 nb         1 FKL      -0.725000
      2 N3          -0.0990    -0.0010     2.3220 nb         1 FKL      -0.748000
      3 C4           1.3200     0.0000     0.0000 ca         1 FKL       0.552200
      4 C5           1.9920     0.0000     1.2320 ca         1 FKL      -0.438400
      5 C6           1.2270    -0.0010     2.4180 ca         1 FKL       0.457200
      6 C8           3.1890    -0.0010     3.7340 c          1 FKL       0.617700
      7 C10          3.4030     0.0000     1.2960 cc         1 FKL       0.022800
      8 C15          6.1640     1.1650     2.9830 ca         1 FKL      -0.002000
      9 C17          8.2620    -0.0170     2.8090 ca         1 FKL      -0.080000
     10 C24         10.3410     3.6000     3.9230 cx         1 FKL      -0.043300
     11 C26         11.7940     3.7360     3.4640 cx         1 FKL      -0.095900
     12 C28         -4.1430    -0.6090    -0.0670 c3         1 FKL      -0.081900
     13 O22          7.6610     3.4110     3.6880 o          1 FKL      -0.647100
     14 N23          9.6240     2.3800     3.5470 ns         1 FKL      -0.146900
     15 C25         11.4790     3.4670     4.9370 cx         1 FKL      -0.095900
     16 C16          7.5550     1.1580     3.0770 ca         1 FKL      -0.165600
     17 C18          7.5870    -1.1670     2.4540 ca         1 FKL      -0.113000
     18 C19          6.2100    -1.1650     2.3600 ca         1 FKL      -0.051300
     19 C14          5.4900     0.0010     2.6240 ca         1 FKL      -0.032800
     20 C9           4.0120     0.0000     2.5230 cd         1 FKL      -0.158400
     21 O13          3.7220    -0.0000     4.8290 o          1 FKL      -0.663500
     22 N7           1.8450    -0.0010     3.6420 n          1 FKL       0.007700
     23 C12          1.0350    -0.0020     4.8630 c3         1 FKL       0.043300
     24 C2          -0.6870    -0.0000     1.1370 ca         1 FKL       0.760900
     25 N11         -2.0670    -0.0000     1.0800 nu         1 FKL      -0.459900
     26 C27         -2.7460     0.0010    -0.2190 c3         1 FKL       0.132500
     27 C32         -2.8820     1.4400    -0.7250 c3         1 FKL      -0.081900
     28 C31         -3.6610     1.4370    -2.0430 c3         1 FKL       0.220900
     29 O30         -4.9390     0.8300    -1.8380 os         1 FKL      -0.408600
     30 C29         -4.8740    -0.5320    -1.4100 c3         1 FKL       0.220900
     31 H4           1.8730     0.0000    -0.9310 h4         1 FKL      -0.014900
     32 H10          3.9950     0.0010     0.3890 ha         1 FKL       0.114000
     33 H15          5.6100     2.0720     3.1890 ha         1 FKL       0.132000
     34 H17          9.3430    -0.0250     2.8810 ha         1 FKL       0.098000
     35 H20          6.1630    -3.2660     2.0180 hc         1 FKL       0.011033
     36 H20A         4.6570    -2.5910     2.6540 hc         1 FKL       0.011033
     37 H20B         5.1000    -2.3250     0.9620 hc         1 FKL       0.011033
     38 H24          9.7930     4.5340     3.9770 h1         1 FKL       0.097700
     39 H26         12.1900     2.8940     2.9090 hc         1 FKL       0.047700
     40 H26A        12.1190     4.7430     3.2320 hc         1 FKL       0.047700
     41 H28         -4.0530    -1.6460     0.2350 hc         1 FKL       0.030200
     42 H28A        -4.7000    -0.0560     0.6790 hc         1 FKL       0.030200
     43 HN23        10.1330     1.5450     3.3350 hn         1 FKL       0.174500
     44 H25         11.6820     2.4600     5.2820 hc         1 FKL       0.047700
     45 H25A        11.6110     4.3090     5.6050 hc         1 FKL       0.047700
     46 H18          8.1410    -2.0750     2.2480 ha         1 FKL       0.108000
     47 H12          1.6870    -0.0040     5.7290 h1         1 FKL       0.031700
     48 H12A         0.4100    -0.8860     4.8810 h1         1 FKL       0.031700
     49 H12B         0.4110     0.8830     4.8840 h1         1 FKL       0.031700
     50 HN11        -2.6030    -0.0310     1.9240 hn         1 FKL       0.303800
     51 H27         -2.1740    -0.5800    -0.9330 h1         1 FKL       0.058700
     52 H32         -3.4160     2.0320     0.0090 hc         1 FKL       0.030200
     53 H32A        -1.8970     1.8600    -0.8890 hc         1 FKL       0.030200
     54 H31         -3.1090     0.8740    -2.7860 h1         1 FKL       0.010200
     55 H31A        -3.7980     2.4570    -2.3830 h1         1 FKL       0.010200
     56 H29         -5.8780    -0.9210    -1.2960 h1         1 FKL       0.010200
     57 H29A        -4.3360    -1.1160    -2.1470 h1         1 FKL       0.010200
     58 C20          5.4810    -2.4250     1.9710 c3         1 FKL       0.055200
     59 C21          8.2780     2.3890     3.4570 c          1 FKL       0.599700
@<TRIPOS>BOND
     1     1     3 ar  
     2     1    24 ar  
     3     2     5 ar  
     4     2    24 ar  
     5     3     4 ar  
     6     3    31 1   
     7     4     5 ar  
     8     4     7 1   
     9     5    22 1   
    10     6    20 1   
    11     6    21 2   
    12     6    22 1   
    13     7    20 2   
    14     7    32 1   
    15     8    16 ar  
    16     8    19 ar  
    17     8    33 1   
    18     9    16 ar  
    19     9    17 ar  
    20     9    34 1   
    21    10    11 1   
    22    10    14 1   
    23    10    15 1   
    24    10    38 1   
    25    11    15 1   
    26    11    39 1   
    27    11    40 1   
    28    12    26 1   
    29    12    30 1   
    30    12    41 1   
    31    12    42 1   
    32    13    59 2   
    33    14    43 1   
    34    14    59 1   
    35    15    44 1   
    36    15    45 1   
    37    16    59 1   
    38    17    18 ar  
    39    17    46 1   
    40    18    19 ar  
    41    18    58 1   
    42    19    20 1   
    43    22    23 1   
    44    23    47 1   
    45    23    48 1   
    46    23    49 1   
    47    24    25 1   
    48    25    26 1   
    49    25    50 1   
    50    26    27 1   
    51    26    51 1   
    52    27    28 1   
    53    27    52 1   
    54    27    53 1   
    55    28    29 1   
    56    28    54 1   
    57    28    55 1   
    58    29    30 1   
    59    30    56 1   
    60    30    57 1   
    61    35    58 1   
    62    36    58 1   
    63    37    58 1   
@<TRIPOS>SUBSTRUCTURE
     1 FKL         1 TEMP              0 ****  ****    0 ROOT
