@<TRIPOS>MOLECULE
molecule
   60    62     1     0     0
SMALL
bcc


@<TRIPOS>ATOM
      1 O16          0.0000     0.0000     0.0000 o          1 FKM      -0.620800
      2 S14          1.4210     0.0000     0.0000 s6         1 FKM       1.331900
      3 O15          2.1540     0.0000     1.2170 o          1 FKM      -0.620800
      4 C13          2.0570    -1.2720    -1.1270 c3         1 FKM      -0.235600
      5 C12          1.7390    -2.6580    -0.5630 c3         1 FKM      -0.057400
      6 C11          2.2750    -3.7300    -1.5140 c3         1 FKM       0.132400
      7 O10          1.9770    -5.0250    -0.9880 os         1 FKM      -0.409600
      8 C9           2.4380    -6.1030    -1.8040 c3         1 FKM       0.307800
      9 N4           3.8700    -6.3150    -1.5710 n          1 FKM      -0.392000
     10 C3           4.2760    -7.3670    -0.8380 c          1 FKM       0.814500
     11 O8           3.4510    -8.1320    -0.3770 o          1 FKM      -0.648500
     12 N2           5.5840    -7.5860    -0.6090 ns         1 FKM      -0.560500
     13 C5           4.7800    -5.4440    -2.1050 cc         1 FKM       0.025600
     14 C6           6.0980    -5.6400    -1.8910 cd         1 FKM      -0.318200
     15 C1           6.5120    -6.7470    -1.1130 c          1 FKM       0.703700
     16 O7           7.6960    -6.9440    -0.9060 o          1 FKM      -0.615500
     17 N17          1.8290     1.4340    -0.7220 n7         1 FKM      -0.908100
     18 C18          1.2370     1.7990    -2.0110 c3         1 FKM       0.286800
     19 C19          2.1790     1.3830    -3.1410 c3         1 FKM      -0.118100
     20 C20          1.0230     3.2900    -2.0610 ca         1 FKM      -0.055300
     21 C25          1.9780     4.1440    -1.5390 ca         1 FKM      -0.163000
     22 C24          1.7840     5.5120    -1.5830 ca         1 FKM      -0.085000
     23 C23          0.6350     6.0300    -2.1470 ca         1 FKM      -0.220000
     24 C22         -0.3250     5.1770    -2.6690 ca         1 FKM       0.151100
     25 C21         -0.1260     3.8040    -2.6300 ca         1 FKM      -0.150000
     26 O26         -1.4570     5.6840    -3.2250 os         1 FKM      -0.323900
     27 C27         -1.5400     7.1060    -3.3460 c3         1 FKM       0.137100
     28 C31         -2.5160     7.4830    -4.4750 c3         1 FKM      -0.094900
     29 C30         -3.6440     8.3080    -3.8220 c3         1 FKM      -0.083900
     30 C29         -3.0000     8.8840    -2.5370 c3         1 FKM      -0.083900
     31 C28         -2.1080     7.7150    -2.0490 c3         1 FKM      -0.094900
     32 H1           1.5900    -1.1600    -2.0980 h1         1 FKM       0.095700
     33 H2           3.1300    -1.1600    -1.2280 h1         1 FKM       0.095700
     34 H3           0.6660    -2.7690    -0.4620 hc         1 FKM       0.072700
     35 H4           2.2060    -2.7690     0.4070 hc         1 FKM       0.072700
     36 H5           1.8080    -3.6180    -2.4850 h1         1 FKM       0.026700
     37 H6           3.3480    -3.6190    -1.6150 h1         1 FKM       0.026700
     38 H7           2.2740    -5.8620    -2.8480 h2         1 FKM       0.086200
     39 H8           1.8940    -7.0050    -1.5520 h2         1 FKM       0.086200
     40 H9           5.8690    -8.3730    -0.0590 hn         1 FKM       0.365500
     41 H10          4.4440    -4.6020    -2.6980 h4         1 FKM       0.161000
     42 H11          6.8290    -4.9560    -2.3060 ha         1 FKM       0.178000
     43 H12          2.4630     2.0610    -0.2660 hn         1 FKM       0.462800
     44 H13          0.2860     1.2940    -2.1280 h1         1 FKM       0.078700
     45 H14          3.1470     1.1250    -2.7280 hc         1 FKM       0.045367
     46 H15          2.2910     2.2040    -3.8390 hc         1 FKM       0.045367
     47 H16          1.7670     0.5240    -3.6570 hc         1 FKM       0.045367
     48 H17          2.8810     3.7390    -1.0960 ha         1 FKM       0.127000
     49 H18          2.5340     6.1780    -1.1740 ha         1 FKM       0.132000
     50 H19          0.4820     7.1020    -2.1790 ha         1 FKM       0.140000
     51 H20         -0.8740     3.1360    -3.0380 ha         1 FKM       0.147000
     52 H21         -0.5610     7.5230    -3.5510 h1         1 FKM       0.049700
     53 H22         -2.9250     6.5870    -4.9250 hc         1 FKM       0.057700
     54 H23         -2.0050     8.0800    -5.2210 hc         1 FKM       0.057700
     55 H24         -3.9550     9.1100    -4.4810 hc         1 FKM       0.048700
     56 H25         -4.4820     7.6680    -3.5710 hc         1 FKM       0.048700
     57 H26         -2.3970     9.7530    -2.7690 hc         1 FKM       0.048700
     58 H27         -3.7590     9.1190    -1.8010 hc         1 FKM       0.048700
     59 H28         -2.7040     6.9830    -1.5170 hc         1 FKM       0.057700
     60 H29         -1.3060     8.0880    -1.4240 hc         1 FKM       0.057700
@<TRIPOS>BOND
     1    16    15 2
     2    22    21 ar
     3    22    23 ar
     4    15    14 1
     5    15    12 1
     6    21    20 ar
     7    23    24 ar
     8    14    13 2
     9    12    10 1
    10    20    18 1
    11    20    25 ar
    12    24    25 ar
    13    24    26 1
    14    19    18 1
    15    18    17 1
    16    26    27 1
    17    13     9 1
    18    10    11 2
    19    10     9 1
    20    27    28 1
    21    27    31 1
    22    28    29 1
    23     9     8 1
    24     3     2 2
    25    17     2 1
    26     2     4 1
    27     2     1 2
    28     4     5 1
    29    31    30 1
    30    29    30 1
    31     8     7 1
    32     6     7 1
    33     6     5 1
    34     4    32 1
    35     4    33 1
    36     5    34 1
    37     5    35 1
    38     6    36 1
    39     6    37 1
    40     8    38 1
    41     8    39 1
    42    12    40 1
    43    13    41 1
    44    14    42 1
    45    17    43 1
    46    18    44 1
    47    19    45 1
    48    19    46 1
    49    19    47 1
    50    21    48 1
    51    22    49 1
    52    23    50 1
    53    25    51 1
    54    27    52 1
    55    28    53 1
    56    28    54 1
    57    29    55 1
    58    29    56 1
    59    30    57 1
    60    30    58 1
    61    31    59 1
    62    31    60 1
@<TRIPOS>SUBSTRUCTURE
     1 FKM         1 TEMP              0 ****  ****    0 ROOT
