@<TRIPOS>MOLECULE
FKM
   60    62     1     0     0
SMALL
bcc


@<TRIPOS>ATOM
      1 O16          0.0000     0.0000     0.0000 o          1 FKM      -0.577300
      2 S14          1.4210     0.0000     0.0000 s6         1 FKM       0.957900
      3 O15          2.1540     0.0000     1.2170 o          1 FKM      -0.577300
      4 C13          2.0570    -1.2720    -1.1270 c3         1 FKM      -0.023600
      5 C12          1.7390    -2.6580    -0.5630 c3         1 FKM       0.002600
      6 C11          2.2750    -3.7300    -1.5140 c3         1 FKM       0.189400
      7 O10          1.9770    -5.0250    -0.9880 os         1 FKM      -0.393600
      8 C9           2.4380    -6.1030    -1.8040 c3         1 FKM       0.258800
      9 N4           3.8700    -6.3150    -1.5710 n          1 FKM       0.002000
     10 C3           4.2760    -7.3670    -0.8380 c          1 FKM       0.598500
     11 O8           3.4510    -8.1320    -0.3770 o          1 FKM      -0.697500
     12 N2           5.5840    -7.5860    -0.6090 ns         1 FKM      -0.126500
     13 C5           4.7800    -5.4440    -2.1050 cc         1 FKM      -0.097400
     14 C6           6.0980    -5.6400    -1.8910 cd         1 FKM      -0.288200
     15 C1           6.5120    -6.7470    -1.1130 c          1 FKM       0.612700
     16 O7           7.6960    -6.9440    -0.9060 o          1 FKM      -0.652500
     17 N17          1.8290     1.4340    -0.7220 n7         1 FKM      -0.595100
     18 C18          1.2370     1.7990    -2.0110 c3         1 FKM       0.254800
     19 C19          2.1790     1.3830    -3.1410 c3         1 FKM      -0.030100
     20 C20          1.0230     3.2900    -2.0610 ca         1 FKM      -0.063300
     21 C25          1.9780     4.1440    -1.5390 ca         1 FKM      -0.143000
     22 C24          1.7840     5.5120    -1.5830 ca         1 FKM      -0.049000
     23 C23          0.6350     6.0300    -2.1470 ca         1 FKM      -0.214000
     24 C22         -0.3250     5.1770    -2.6690 ca         1 FKM       0.159100
     25 C21         -0.1260     3.8040    -2.6300 ca         1 FKM      -0.129000
     26 O26         -1.4570     5.6840    -3.2250 os         1 FKM      -0.297900
     27 C27         -1.5400     7.1060    -3.3460 c3         1 FKM       0.164100
     28 C31         -2.5160     7.4830    -4.4750 c3         1 FKM      -0.043900
     29 C30         -3.6440     8.3080    -3.8220 c3         1 FKM      -0.021900
     30 C29         -3.0000     8.8840    -2.5370 c3         1 FKM      -0.021900
     31 C28         -2.1080     7.7150    -2.0490 c3         1 FKM      -0.043900
     32 H1           1.5900    -1.1600    -2.0980 h1         1 FKM       0.066700
     33 H2           3.1300    -1.1600    -1.2280 h1         1 FKM       0.066700
     34 H3           0.6660    -2.7690    -0.4620 hc         1 FKM       0.041200
     35 H4           2.2060    -2.7690     0.4070 hc         1 FKM       0.041200
     36 H5           1.8080    -3.6180    -2.4850 h1         1 FKM      -0.005300
     37 H6           3.3480    -3.6190    -1.6150 h1         1 FKM      -0.005300
     38 H7           2.2740    -5.8620    -2.8480 h2         1 FKM       0.043700
     39 H8           1.8940    -7.0050    -1.5520 h2         1 FKM       0.043700
     40 H9           5.8690    -8.3730    -0.0590 hn         1 FKM       0.208500
     41 H10          4.4440    -4.6020    -2.6980 h4         1 FKM       0.134000
     42 H11          6.8290    -4.9560    -2.3060 ha         1 FKM       0.149000
     43 H12          2.4630     2.0610    -0.2660 hn         1 FKM       0.363800
     44 H13          0.2860     1.2940    -2.1280 h1         1 FKM       0.050700
     45 H14          3.1470     1.1250    -2.7280 hc         1 FKM       0.011700
     46 H15          2.2910     2.2040    -3.8390 hc         1 FKM       0.011700
     47 H16          1.7670     0.5240    -3.6570 hc         1 FKM       0.011700
     48 H17          2.8810     3.7390    -1.0960 ha         1 FKM       0.107000
     49 H18          2.5340     6.1780    -1.1740 ha         1 FKM       0.101000
     50 H19          0.4820     7.1020    -2.1790 ha         1 FKM       0.127000
     51 H20         -0.8740     3.1360    -3.0380 ha         1 FKM       0.121000
     52 H21         -0.5610     7.5230    -3.5510 h1         1 FKM       0.022700
     53 H22         -2.9250     6.5870    -4.9250 hc         1 FKM       0.026700
     54 H23         -2.0050     8.0800    -5.2210 hc         1 FKM       0.026700
     55 H24         -3.9550     9.1100    -4.4810 hc         1 FKM       0.017450
     56 H25         -4.4820     7.6680    -3.5710 hc         1 FKM       0.017450
     57 H26         -2.3970     9.7530    -2.7690 hc         1 FKM       0.017450
     58 H27         -3.7590     9.1190    -1.8010 hc         1 FKM       0.017450
     59 H28         -2.7040     6.9830    -1.5170 hc         1 FKM       0.026700
     60 H29         -1.3060     8.0880    -1.4240 hc         1 FKM       0.026700
@<TRIPOS>BOND
     1     1     2 2   
     2     2     3 2   
     3     2     4 1   
     4     2    17 1   
     5     4     5 1   
     6     4    32 1   
     7     4    33 1   
     8     5     6 1   
     9     5    34 1   
    10     5    35 1   
    11     6     7 1   
    12     6    36 1   
    13     6    37 1   
    14     7     8 1   
    15     8     9 1   
    16     8    38 1   
    17     8    39 1   
    18     9    10 1   
    19     9    13 1   
    20    10    11 2   
    21    10    12 1   
    22    12    15 1   
    23    12    40 1   
    24    13    14 2   
    25    13    41 1   
    26    14    15 1   
    27    14    42 1   
    28    15    16 2   
    29    17    18 1   
    30    17    43 1   
    31    18    19 1   
    32    18    20 1   
    33    18    44 1   
    34    19    45 1   
    35    19    46 1   
    36    19    47 1   
    37    20    21 ar  
    38    20    25 ar  
    39    21    22 ar  
    40    21    48 1   
    41    22    23 ar  
    42    22    49 1   
    43    23    24 ar  
    44    23    50 1   
    45    24    25 ar  
    46    24    26 1   
    47    25    51 1   
    48    26    27 1   
    49    27    28 1   
    50    27    31 1   
    51    27    52 1   
    52    28    29 1   
    53    28    53 1   
    54    28    54 1   
    55    29    30 1   
    56    29    55 1   
    57    29    56 1   
    58    30    31 1   
    59    30    57 1   
    60    30    58 1   
    61    31    59 1   
    62    31    60 1   
@<TRIPOS>SUBSTRUCTURE
     1 FKM         1 TEMP              0 ****  ****    0 ROOT
