@<TRIPOS>MOLECULE
molecule
   40    43     1     0     0
SMALL
bcc


@<TRIPOS>ATOM
      1 C5           0.0000     0.0000     0.0000 ca         1 FKN      -0.519500
      2 C6           1.4110     0.0000     0.0000 ca         1 FKN       0.547800
      3 C13          0.3070    -0.9210    -6.5280 ca         1 FKN      -0.177000
      4 C15          0.2070     1.4600    -6.2480 ca         1 FKN      -0.207000
      5 C20         -3.4820     0.8850     3.3880 ca         1 FKN      -0.146000
      6 C21         -4.4080     0.0030     2.8600 ca         1 FKN      -0.012000
      7 C22         -4.0380    -0.8790     1.8600 ca         1 FKN      -0.303500
      8 C28         -5.9680    -1.0970    -0.1920 c3         1 FKN      -0.227300
      9 O29         -4.4460    -3.0900     0.7170 o          1 FKN      -0.611800
     10 S26         -5.2230    -1.9990     1.1930 sy         1 FKN       1.192300
     11 O27         -6.1680    -2.1740     2.2390 o          1 FKN      -0.611800
     12 C19         -2.1820     0.8890     2.9210 ca         1 FKN       0.099400
     13 Cl24        -1.0220     1.9960     3.5860 cl         1 FKN      -0.069400
     14 C23         -2.7420    -0.8850     1.3840 ca         1 FKN      -0.004000
     15 C18         -1.8040     0.0020     1.9130 ca         1 FKN      -0.114900
     16 C9          -0.4110     0.0010     1.4070 cc         1 FKN       0.442500
     17 C1          -0.6710     0.0040    -1.2230 ca         1 FKN       0.565200
     18 N8           0.6800     0.0010     2.1330 nd         1 FKN      -0.461100
     19 N7           1.8070     0.0000     1.3040 na         1 FKN      -0.134800
     20 N4           2.0480    -0.0010    -1.1670 nb         1 FKN      -0.774000
     21 C3           1.3700    -0.0010    -2.3000 ca         1 FKN       0.944300
     22 N2           0.0430     0.0080    -2.3350 nb         1 FKN      -0.819000
     23 O10          2.0540    -0.0010    -3.4700 os         1 FKN      -0.315400
     24 C11          1.3430     0.1050    -4.6250 ca         1 FKN       0.058100
     25 C16          0.9290     1.3540    -5.0730 ca         1 FKN       0.168900
     26 F25          1.2320     2.4630    -4.3640 f          1 FKN      -0.119900
     27 C14         -0.1040     0.3230    -6.9750 ca         1 FKN       0.166900
     28 F17         -0.8100     0.4280    -8.1220 f          1 FKN      -0.129900
     29 C12          1.0300    -1.0310    -5.3550 ca         1 FKN      -0.069000
     30 H13          0.0630    -1.8090    -7.0980 ha         1 FKN       0.156000
     31 H15         -0.1160     2.4320    -6.5990 ha         1 FKN       0.166000
     32 H20         -3.7780     1.5730     4.1710 ha         1 FKN       0.156000
     33 H21         -5.4260     0.0040     3.2290 ha         1 FKN       0.160000
     34 H28         -5.2250    -0.9460    -0.9670 h1         1 FKN       0.100033
     35 H28A        -6.7960    -1.6690    -0.5930 h1         1 FKN       0.100033
     36 H28B        -6.3280    -0.1350     0.1550 h1         1 FKN       0.100033
     37 H23         -2.4550    -1.5760     0.6020 ha         1 FKN       0.163000
     38 H1          -1.7530     0.0120    -1.2600 h4         1 FKN       0.031100
     39 HN7          2.7560    -0.0000     1.6200 hn         1 FKN       0.349700
     40 H12          1.3520    -2.0050    -5.0050 ha         1 FKN       0.158000
@<TRIPOS>BOND
     1     1     2 ar
     2     1    16 1
     3     1    17 ar
     4     2    19 1
     5     2    20 ar
     6     3    27 ar
     7     3    29 ar
     8     4    25 ar
     9     4    27 ar
    10     5     6 ar
    11     5    12 ar
    12     6     7 ar
    13     7    10 1
    14     7    14 ar
    15     8    10 1
    16     9    10 2
    17    10    11 2
    18    12    13 1
    19    12    15 ar
    20    14    15 ar
    21    15    16 1
    22    16    18 2
    23    17    22 ar
    24    18    19 1
    25    20    21 ar
    26    21    22 ar
    27    21    23 1
    28    23    24 1
    29    24    25 ar
    30    24    29 ar
    31    25    26 1
    32    27    28 1
    33     3    30 1
    34     4    31 1
    35     5    32 1
    36     6    33 1
    37     8    34 1
    38     8    35 1
    39     8    36 1
    40    14    37 1
    41    17    38 1
    42    19    39 1
    43    29    40 1
@<TRIPOS>SUBSTRUCTURE
     1 FKN         1 TEMP              0 ****  ****    0 ROOT
