@<TRIPOS>MOLECULE
FKO
   36    39     1     0     0
SMALL
bcc


@<TRIPOS>ATOM
      1 FAA         0.2160   -0.2670   -0.0610 f         1 FKO     -0.124900
      2 CAQ         1.5600   -0.1600    0.0340 ca        1 FKO      0.111900
      3 CAG         2.2060   -0.4010    1.2590 ca        1 FKO     -0.146000
      4 CAC         3.5910   -0.2900    1.3490 ca        1 FKO     -0.130000
      5 CAE         4.3470    0.0650    0.2330 ca        1 FKO     -0.119000
      6 CAI         3.7260    0.3160   -0.9890 ca        1 FKO     -0.157000
      7 CAT         2.3370    0.2060   -1.0940 ca        1 FKO      0.078100
      8 OAP         1.6210    0.5130   -2.2420 os        1 FKO     -0.236200
      9 CAS         2.2990    0.3440   -3.4530 ca        1 FKO      0.091100
     10 CAM         2.1930    1.3710   -4.3630 ca        1 FKO     -0.093000
     11 CAK         2.9530   -0.8970   -3.7370 ca        1 FKO     -0.161000
     12 CAL         3.5140   -1.1210   -4.9660 ca        1 FKO     -0.068000
     13 CAX         3.4390   -0.1090   -5.9460 ca        1 FKO     -0.119000
     14 CAW         2.7610    1.1550   -5.6480 ca        1 FKO     -0.073000
     15 NAO         2.8010    1.9740   -6.7570 nc        1 FKO     -0.259400
     16 NAN         3.4510    1.2990   -7.6910 na        1 FKO      0.074800
     17 CAV         3.8720    0.0280   -7.2950 cc        1 FKO     -0.061300
     18 CAU         4.6250   -0.8990   -8.1150 ca        1 FKO     -0.022800
     19 CAR         4.3540   -1.1220   -9.4760 ca        1 FKO      0.021400
     20 CLB         3.0960   -0.3010  -10.2790 cl        1 FKO     -0.091400
     21 CAJ         5.6680   -1.6230   -7.5120 ca        1 FKO     -0.103000
     22 CAF         6.4160   -2.5390   -8.2430 ca        1 FKO     -0.127000
     23 CAD         6.1370   -2.7500   -9.5940 ca        1 FKO     -0.114000
     24 CAH         5.1070   -2.0440  -10.2100 ca        1 FKO     -0.121000
     25 HAG         1.6030   -0.6790    2.1360 ha        1 FKO      0.151000
     26 HAC         4.0880   -0.4840    2.3110 ha        1 FKO      0.139000
     27 HAE         5.4410    0.1530    0.3140 ha        1 FKO      0.138000
     28 HAI         4.3160    0.5990   -1.8740 ha        1 FKO      0.153000
     29 HAM         1.6770    2.3100   -4.1240 ha        1 FKO      0.165000
     30 HAK         2.9830   -1.6610   -2.9460 ha        1 FKO      0.148000
     31 HAL         4.0080   -2.0740   -5.2050 ha        1 FKO      0.139000
     32 HNAN        3.5780    1.6990   -8.5960 hn        1 FKO      0.332700
     33 HAJ         5.8890   -1.4520   -6.4460 ha        1 FKO      0.149000
     34 HAF         7.2300   -3.0960   -7.7550 ha        1 FKO      0.142000
     35 HAD         6.7280   -3.4740  -10.1750 ha        1 FKO      0.142000
     36 HAH         4.8830   -2.2130  -11.2750 ha        1 FKO      0.152000
@<TRIPOS>BOND
     1    1    2 1   
     2    2    3 ar  
     3    2    7 ar  
     4    3    4 ar  
     5    3   25 1   
     6    4    5 ar  
     7    4   26 1   
     8    5    6 ar  
     9    5   27 1   
    10    6    7 ar  
    11    6   28 1   
    12    7    8 1   
    13    8    9 1   
    14    9   10 ar  
    15    9   11 ar  
    16   10   14 ar  
    17   10   29 1   
    18   11   12 ar  
    19   11   30 1   
    20   12   13 ar  
    21   12   31 1   
    22   13   14 ar  
    23   13   17 2   
    24   14   15 2   
    25   15   16 1   
    26   16   17 1   
    27   16   32 1   
    28   17   18 1   
    29   18   19 ar  
    30   18   21 ar  
    31   19   20 1   
    32   19   24 ar  
    33   21   22 ar  
    34   21   33 1   
    35   22   23 ar  
    36   22   34 1   
    37   23   24 ar  
    38   23   35 1   
    39   24   36 1   
@<TRIPOS>SUBSTRUCTURE
     1 FKO         1 TEMP              0 ****  ****    0 ROOT
