@<TRIPOS>MOLECULE
molecule
   36    39     1     0     0
SMALL
bcc


@<TRIPOS>ATOM
      1 FAA          0.0000     0.0000     0.0000 f          1 FKO      -0.130900
      2 CAQ          1.3510     0.0000     0.0000 ca         1 FKO       0.109900
      3 CAG          2.0440     0.0000     1.1970 ca         1 FKO      -0.138000
      4 CAC          3.4270    -0.0000     1.1970 ca         1 FKO      -0.139000
      5 CAE          4.1210     0.0000     0.0020 ca         1 FKO      -0.109000
      6 CAI          3.4340     0.0010    -1.1980 ca         1 FKO      -0.183000
      7 CAT          2.0480    -0.0050    -1.2030 ca         1 FKO       0.104100
      8 OAP          1.3700    -0.0100    -2.3820 os         1 FKO      -0.240200
      9 CAS          2.0930    -0.0200    -3.5320 ca         1 FKO       0.128100
     10 CAM          2.4390     1.1650    -4.1090 ca         1 FKO      -0.120000
     11 CAK          2.4690    -1.2480    -4.0930 ca         1 FKO      -0.178000
     12 CAL          3.1910    -1.3140    -5.2400 ca         1 FKO      -0.042000
     13 CAX          3.5770    -0.1280    -5.8890 ca         1 FKO      -0.172000
     14 CAW          3.1900     1.1630    -5.3040 ca         1 FKO      -0.030000
     15 NAO          3.6730     2.1060    -6.0950 nc         1 FKO      -0.263400
     16 NAN          4.3520     1.5100    -7.1630 na         1 FKO       0.036800
     17 CAV          4.2990     0.1670    -7.0480 cc         1 FKO      -0.009300
     18 CAU          4.9000    -0.8110    -7.9740 ca         1 FKO      -0.050800
     19 CAR          4.0850    -1.6770    -8.7070 ca         1 FKO       0.049400
     20 ClB          2.3590    -1.6060    -8.5320 cl         1 FKO      -0.082400
     21 CAJ          6.2880    -0.8730    -8.1270 ca         1 FKO      -0.103000
     22 CAF          6.8430    -1.7900    -8.9950 ca         1 FKO      -0.129000
     23 CAD          6.0290    -2.6480    -9.7130 ca         1 FKO      -0.107000
     24 CAH          4.6540    -2.5910    -9.5720 ca         1 FKO      -0.123000
     25 HAG          1.5020    -0.0000     2.1350 ha         1 FKO       0.149000
     26 HAC          3.9670    -0.0010     2.1360 ha         1 FKO       0.136000
     27 HAE          5.2040     0.0020     0.0060 ha         1 FKO       0.135000
     28 HAI          3.9800    -0.0010    -2.1340 ha         1 FKO       0.153000
     29 HAM          2.0320     2.0930    -3.7270 ha         1 FKO       0.158000
     30 HAK          2.1740    -2.1660    -3.5990 ha         1 FKO       0.145000
     31 HAL          3.4690    -2.2760    -5.6530 ha         1 FKO       0.137000
     32 HNAN         4.8090     2.0060    -7.9030 hn         1 FKO       0.335700
     33 HAJ          6.9260    -0.2020    -7.5650 ha         1 FKO       0.143000
     34 HAF          7.9190    -1.8400    -9.1120 ha         1 FKO       0.140000
     35 HAD          6.4710    -3.3660   -10.3940 ha         1 FKO       0.141000
     36 HAH          4.0240    -3.2640   -10.1400 ha         1 FKO       0.151000
@<TRIPOS>BOND
     1     1     2 1
     2     2     3 ar
     3     2     7 ar
     4     3     4 ar
     5     4     5 ar
     6     5     6 ar
     7     6     7 ar
     8     7     8 1
     9     8     9 1
    10     9    10 ar
    11     9    11 ar
    12    10    14 ar
    13    11    12 ar
    14    12    13 ar
    15    13    14 ar
    16    13    17 2
    17    14    15 2
    18    15    16 1
    19    16    17 1
    20    17    18 1
    21    18    19 ar
    22    18    21 ar
    23    19    20 1
    24    19    24 ar
    25    21    22 ar
    26    22    23 ar
    27    23    24 ar
    28     3    25 1
    29     4    26 1
    30     5    27 1
    31     6    28 1
    32    10    29 1
    33    11    30 1
    34    12    31 1
    35    16    32 1
    36    21    33 1
    37    22    34 1
    38    23    35 1
    39    24    36 1
@<TRIPOS>SUBSTRUCTURE
     1 FKO         1 TEMP              0 ****  ****    0 ROOT
