@<TRIPOS>MOLECULE
molecule
   46    48     1     0     0
SMALL
bcc


@<TRIPOS>ATOM
      1 C3           0.0000     0.0000     0.0000 ca         1 FKQ      -0.100500
      2 C2           1.3800     0.0000     0.0000 ca         1 FKQ      -0.037500
      3 C1           2.0740     0.0000     1.1970 ca         1 FKQ      -0.333500
      4 S1           3.8370    -0.0000     1.1880 sy         1 FKQ       1.223200
      5 O1           4.2440    -0.5440     2.4360 o          1 FKQ      -0.515300
      6 O2           4.2320    -0.5450    -0.0630 o          1 FKQ      -0.515300
      7 C6           1.3920     0.0010     2.4000 ca         1 FKQ      -0.037500
      8 C5           0.0130     0.0010     2.4140 ca         1 FKQ      -0.100500
      9 C4          -0.6950     0.0070     1.2100 ca         1 FKQ      -0.029600
     10 C7          -2.1730     0.0080     1.2180 c          1 FKQ       0.652700
     11 O3          -2.7850    -0.6890     0.4310 o          1 FKQ      -0.567100
     12 N2          -2.8420     0.7810     2.0950 n          1 FKQ      -0.473800
     13 C12         -4.3060     0.6990     2.2020 c3         1 FKQ       0.100500
     14 C11         -4.8910     2.1040     2.0390 c3         1 FKQ      -0.100900
     15 C8          -2.1220     1.7180     2.9680 c3         1 FKQ       0.100500
     16 C9          -2.7280     3.1150     2.7980 c3         1 FKQ      -0.100900
     17 C10         -4.2400     3.0450     3.0540 c3         1 FKQ       0.206100
     18 O4          -4.4770     2.5490     4.3740 oh         1 FKQ      -0.599800
     19 C13         -4.8350     4.4230     2.9220 ca         1 FKQ      -0.136300
     20 C14         -5.9530     4.7670     3.6590 ca         1 FKQ      -0.117500
     21 C15         -6.4990     6.0320     3.5370 ca         1 FKQ      -0.123500
     22 C16         -5.9290     6.9510     2.6780 ca         1 FKQ      -0.114000
     23 C17         -4.8110     6.6070     1.9400 ca         1 FKQ      -0.123500
     24 C18         -4.2620     5.3460     2.0660 ca         1 FKQ      -0.117500
     25 N1           4.3260     1.5820     1.1850 nz         1 FKQ      -0.806500
     26 H1          -0.5430     0.0020    -0.9380 ha         1 FKQ       0.179000
     27 H2           1.9210    -0.0050    -0.9390 ha         1 FKQ       0.158500
     28 H3           1.9420    -0.0010     3.3330 ha         1 FKQ       0.158500
     29 H4          -0.5200     0.0050     3.3570 ha         1 FKQ       0.179000
     30 H5          -4.6900     0.0530     1.4220 h1         1 FKQ       0.065450
     31 H6          -4.5760     0.3050     3.1740 h1         1 FKQ       0.065450
     32 H7          -5.9600     2.0720     2.2120 hc         1 FKQ       0.065200
     33 H8          -4.6930     2.4630     1.0360 hc         1 FKQ       0.065200
     34 H9          -2.2240     1.4030     3.9990 h1         1 FKQ       0.065450
     35 H10         -1.0760     1.7410     2.6900 h1         1 FKQ       0.065450
     36 H11         -2.2730     3.7950     3.5080 hc         1 FKQ       0.065200
     37 H12         -2.5490     3.4650     1.7890 hc         1 FKQ       0.065200
     38 H13         -4.0950     3.1380     5.0040 ho         1 FKQ       0.410000
     39 H14         -6.4000     4.0470     4.3340 ha         1 FKQ       0.134500
     40 H15         -7.3750     6.3010     4.1150 ha         1 FKQ       0.137500
     41 H16         -6.3590     7.9400     2.5800 ha         1 FKQ       0.139000
     42 H17         -4.3630     7.3280     1.2670 ha         1 FKQ       0.137500
     43 H18         -3.3860     5.0760     1.4880 ha         1 FKQ       0.134500
     44 H19          3.9710     2.0390     0.3690 hn         1 FKQ       0.491467
     45 H20          5.3260     1.6210     1.1810 hn         1 FKQ       0.491467
     46 H131         3.9770     2.0400     2.0030 hn         1 FKQ       0.491467
@<TRIPOS>BOND
     1    22    21 ar
     2    22    23 ar
     3    21    20 ar
     4    23    24 ar
     5    16    15 1
     6    16    17 1
     7    20    19 ar
     8    24    19 ar
     9    15    12 1
    10    19    17 1
    11    11    10 2
    12    17    18 1
    13    17    14 1
    14    10    12 1
    15    10     9 1
    16    12    13 1
    17    14    13 1
    18     9     1 ar
    19     9     8 ar
    20     1     2 ar
    21     8     7 ar
    22     2     3 ar
    23     7     3 ar
    24     3     4 1
    25     6     4 2
    26     4     5 2
    27     4    25 1
    28     1    26 1
    29     2    27 1
    30     7    28 1
    31     8    29 1
    32    13    30 1
    33    13    31 1
    34    14    32 1
    35    14    33 1
    36    15    34 1
    37    15    35 1
    38    16    36 1
    39    16    37 1
    40    18    38 1
    41    20    39 1
    42    21    40 1
    43    22    41 1
    44    23    42 1
    45    24    43 1
    46    25    44 1
    47    25    45 1
    48    46    25 1
@<TRIPOS>SUBSTRUCTURE
     1 FKQ         1 TEMP              0 ****  ****    0 ROOT
