@<TRIPOS>MOLECULE
molecule
   39    38     1     0     0
SMALL
bcc


@<TRIPOS>ATOM
      1 C2           0.0000     0.0000     0.0000 c3         1 FKS       0.090800
      2 C3           1.5300     0.0000     0.0000 c3         1 FKS      -0.115400
      3 C4           2.0410     0.0000     1.4420 c3         1 FKS       0.168800
      4 C6           4.0370    -0.0000     2.8120 c3         1 FKS       0.155800
      5 C7           5.5660    -0.0010     2.7720 c3         1 FKS      -0.080400
      6 C8           6.1150    -0.0010     4.1990 c3         1 FKS      -0.082400
      7 C9           7.6450    -0.0010     4.1580 c3         1 FKS      -0.074400
      8 C10          8.1940    -0.0020     5.5860 c3         1 FKS      -0.060400
      9 C11          9.7230    -0.0010     5.5440 c3         1 FKS       0.314600
     10 C12         10.2720    -0.0020     6.9730 c3         1 FKS       0.567900
     11 F15         11.6700    -0.0020     6.9350 f          1 FKS      -0.218633
     12 F16          9.8220     1.1400     7.6450 f          1 FKS      -0.218633
     13 F17          9.8240    -1.1450     7.6440 f          1 FKS      -0.218633
     14 N5           3.5090     0.0000     1.4410 n7         1 FKS      -0.815200
     15 N1          -0.4900     0.0010    -1.3840 nz         1 FKS      -0.809600
     16 O13         10.1800    -1.1670     4.8570 oh         1 FKS      -0.594300
     17 O14         10.1810     1.1660     4.8590 oh         1 FKS      -0.594300
     18 H1          -0.3610    -0.8850     0.5100 hx         1 FKS       0.113200
     19 H2          -0.3610     0.8840     0.5120 hx         1 FKS       0.113200
     20 H3           1.8910     0.8840    -0.5110 hc         1 FKS       0.072700
     21 H4           1.8910    -0.8840    -0.5110 hc         1 FKS       0.072700
     22 H5           1.6800     0.8840     1.9530 h1         1 FKS       0.045700
     23 H6           1.6800    -0.8850     1.9530 h1         1 FKS       0.045700
     24 H7           3.6900    -0.8850     3.3320 h1         1 FKS       0.040700
     25 H8           3.6900     0.8840     3.3330 h1         1 FKS       0.040700
     26 H9           5.9140     0.8840     2.2510 hc         1 FKS       0.053700
     27 H10          5.9130    -0.8850     2.2510 hc         1 FKS       0.053700
     28 H11          5.7680    -0.8850     4.7190 hc         1 FKS       0.045200
     29 H12          5.7680     0.8840     4.7200 hc         1 FKS       0.045200
     30 H13          7.9920     0.8830     3.6380 hc         1 FKS       0.060200
     31 H14          7.9920    -0.8860     3.6370 hc         1 FKS       0.060200
     32 H15          7.8460     0.8830     6.1070 hc         1 FKS       0.075200
     33 H16          7.8470    -0.8870     6.1060 hc         1 FKS       0.075200
     34 H17          3.8430    -0.8080     0.9550 hn         1 FKS       0.358800
     35 H19         -0.1960    -0.8380    -1.8430 hn         1 FKS       0.457800
     36 H20         -0.1200     0.7950    -1.8690 hn         1 FKS       0.457800
     37 H22         11.0860    -1.0580     4.6200 ho         1 FKS       0.420000
     38 H23         11.0870     1.0560     4.6220 ho         1 FKS       0.420000
     39 H131        -1.4900     0.0500    -1.3840 hn         1 FKS       0.457800
@<TRIPOS>BOND
     1    16     9 1
     2    12    10 1
     3    17     9 1
     4     9    10 1
     5     9     8 1
     6    10    13 1
     7    10    11 1
     8     1    15 1
     9     1     2 1
    10     7     8 1
    11     7     6 1
    12     5     6 1
    13     5     4 1
    14     3     2 1
    15     3    14 1
    16    14     4 1
    17     1    18 1
    18     1    19 1
    19     2    20 1
    20     2    21 1
    21     3    22 1
    22     3    23 1
    23     4    24 1
    24     4    25 1
    25     5    26 1
    26     5    27 1
    27     6    28 1
    28     6    29 1
    29     7    30 1
    30     7    31 1
    31     8    32 1
    32     8    33 1
    33    14    34 1
    34    15    35 1
    35    15    36 1
    36    16    37 1
    37    17    38 1
    38    39    15 1
@<TRIPOS>SUBSTRUCTURE
     1 FKS         1 TEMP              0 ****  ****    0 ROOT
