@<TRIPOS>MOLECULE
molecule
   40    42     1     0     0
SMALL
bcc


@<TRIPOS>ATOM
      1 C2           0.0000     0.0000     0.0000 cc         1 FKV       0.418600
      2 C3           0.6730    -0.0010     3.5530 c3         1 FKV       0.126300
      3 C5          -1.3650    -1.4510     3.6670 ca         1 FKV      -0.109000
      4 C7          -1.3760    -3.4930     4.9170 ca         1 FKV      -0.167300
      5 C9           0.6000    -2.1430     4.8470 ca         1 FKV      -0.109000
      6 C10         -2.1000    -4.7230     5.4000 c3         1 FKV       0.673200
      7 C11         -0.0610     1.2480     4.0450 c3         1 FKV      -0.106100
      8 C12         -0.8860     0.0050    -1.2190 c3         1 FKV      -0.149700
      9 C13         -1.1810     1.4490    -1.6290 c3         1 FKV       0.621900
     10 C15          4.0800     0.0010     0.6190 c          1 FKV       0.829500
     11 C14          2.4330     0.0010    -1.0480 c          1 FKV       0.745100
     12 C1           1.4090     0.0000     0.0000 cd         1 FKV      -0.408900
     13 N2           3.7320     0.0000    -0.6780 ns         1 FKV      -0.560500
     14 O            5.2610     0.0010     0.9070 o          1 FKV      -0.645500
     15 N3           3.1730     0.0000     1.6100 ns         1 FKV      -0.440100
     16 C            1.8230     0.0000     1.3320 cc         1 FKV       0.101300
     17 N1           0.7120    -0.0010     2.0890 na         1 FKV       0.080400
     18 N           -0.4040    -0.0010     1.2410 nd         1 FKV      -0.493800
     19 F5          -1.8280     2.1100    -0.5790 f          1 FKV      -0.221633
     20 F4           0.0200     2.1050    -1.9220 f          1 FKV      -0.221633
     21 F3          -2.0030     1.4550    -2.7610 f          1 FKV      -0.221633
     22 C4          -0.0510    -1.2320     4.0360 ca         1 FKV      -0.095300
     23 C8          -0.0610    -3.2770     5.2810 ca         1 FKV      -0.082500
     24 F2          -3.4640    -4.4420     5.5260 f          1 FKV      -0.220967
     25 F1          -1.9200    -5.7610     4.4790 f          1 FKV      -0.220967
     26 F           -1.5870    -5.1080     6.6440 f          1 FKV      -0.220967
     27 C6          -2.0280    -2.5790     4.1100 ca         1 FKV      -0.082500
     28 H1           1.6840    -0.0010     3.9410 h1         1 FKV       0.067700
     29 H2          -1.8760    -0.7350     3.0350 ha         1 FKV       0.150500
     30 H3           1.6320    -1.9740     5.1330 ha         1 FKV       0.150500
     31 H4           0.6130     2.0960     4.0200 hc         1 FKV       0.060367
     32 H5          -0.9120     1.4430     3.4030 hc         1 FKV       0.060367
     33 H6          -0.4040     1.0890     5.0600 hc         1 FKV       0.060367
     34 H7          -1.8150    -0.5030    -0.9920 hc         1 FKV       0.104200
     35 H8          -0.3840    -0.5060    -2.0320 hc         1 FKV       0.104200
     36 H9           4.4460    -0.0000    -1.3810 hn         1 FKV       0.372500
     37 H10          3.4810     0.0010     2.5620 hn         1 FKV       0.354500
     38 H11          0.4490    -3.9910     5.9170 ha         1 FKV       0.153000
     39 H12         -3.0580    -2.7500     3.8200 ha         1 FKV       0.153000
     40 O1           2.1210     0.0000    -2.2250 o          1 FKV      -0.609500
@<TRIPOS>BOND
     1    14    10 2
     2    10    13 1
     3    10    15 1
     4    13    11 1
     5    15    16 1
     6    11    40 2
     7    11    12 1
     8    16    12 2
     9    16    17 1
    10    12     1 1
    11     5    23 ar
    12     5    22 ar
    13    17     2 1
    14    17    18 1
    15    23     4 ar
    16     2    22 1
    17     2     7 1
    18     1    18 2
    19     1     8 1
    20    19     9 1
    21    22     3 ar
    22     8     9 1
    23    26     6 1
    24     4     6 1
    25     4    27 ar
    26    24     6 1
    27     9    20 1
    28     9    21 1
    29     6    25 1
    30     3    27 ar
    31     2    28 1
    32     3    29 1
    33     5    30 1
    34     7    31 1
    35     7    32 1
    36     7    33 1
    37     8    34 1
    38     8    35 1
    39    13    36 1
    40    15    37 1
    41    23    38 1
    42    27    39 1
@<TRIPOS>SUBSTRUCTURE
     1 FKV         1 TEMP              0 ****  ****    0 ROOT
