@<TRIPOS>MOLECULE
FKV
   40    42     1     0     0
SMALL
bcc


@<TRIPOS>ATOM
      1 C2           0.0000     0.0000     0.0000 cc         1 FKV       0.454600
      2 C3           0.6730    -0.0010     3.5530 c3         1 FKV       0.019300
      3 C5          -1.3650    -1.4510     3.6670 ca         1 FKV      -0.085500
      4 C7          -1.3760    -3.4930     4.9170 ca         1 FKV      -0.197300
      5 C9           0.6000    -2.1430     4.8470 ca         1 FKV      -0.085500
      6 C10         -2.1000    -4.7230     5.4000 c3         1 FKV       0.640200
      7 C11         -0.0610     1.2480     4.0450 c3         1 FKV      -0.014100
      8 C12         -0.8860     0.0050    -1.2190 c3         1 FKV      -0.104700
      9 C13         -1.1810     1.4490    -1.6290 c3         1 FKV       0.578900
     10 C15          4.0800     0.0010     0.6190 c          1 FKV       0.591500
     11 C14          2.4330     0.0010    -1.0480 c          1 FKV       0.669100
     12 C1           1.4090     0.0000     0.0000 cc         1 FKV      -0.424900
     13 N2           3.7320     0.0000    -0.6780 ns         1 FKV      -0.127500
     14 O            5.2610     0.0010     0.9070 o          1 FKV      -0.697500
     15 N3           3.1730     0.0000     1.6100 ns         1 FKV       0.036900
     16 C            1.8230     0.0000     1.3320 cd         1 FKV      -0.217700
     17 N1           0.7120    -0.0010     2.0890 na         1 FKV       0.519400
     18 N           -0.4040    -0.0010     1.2410 nd         1 FKV      -0.633800
     19 F5          -1.8280     2.1100    -0.5790 f          1 FKV      -0.206967
     20 F4           0.0200     2.1050    -1.9220 f          1 FKV      -0.206967
     21 F3          -2.0030     1.4550    -2.7610 f          1 FKV      -0.206967
     22 C4          -0.0510    -1.2320     4.0360 ca         1 FKV      -0.105300
     23 C8          -0.0610    -3.2770     5.2810 ca         1 FKV      -0.041000
     24 F2          -3.4640    -4.4420     5.5260 f          1 FKV      -0.205967
     25 F1          -1.9200    -5.7610     4.4790 f          1 FKV      -0.205967
     26 F           -1.5870    -5.1080     6.6440 f          1 FKV      -0.205967
     27 C6          -2.0280    -2.5790     4.1100 ca         1 FKV      -0.041000
     28 H1           1.6840    -0.0010     3.9410 h1         1 FKV       0.039700
     29 H2          -1.8760    -0.7350     3.0350 ha         1 FKV       0.126000
     30 H3           1.6320    -1.9740     5.1330 ha         1 FKV       0.126000
     31 H4           0.6130     2.0960     4.0200 hc         1 FKV       0.026367
     32 H5          -0.9120     1.4430     3.4030 hc         1 FKV       0.026367
     33 H6          -0.4040     1.0890     5.0600 hc         1 FKV       0.026367
     34 H7          -1.8150    -0.5030    -0.9920 hc         1 FKV       0.069700
     35 H8          -0.3840    -0.5060    -2.0320 hc         1 FKV       0.069700
     36 H9           4.4460    -0.0000    -1.3810 hn         1 FKV       0.212500
     37 H10          3.4810     0.0010     2.5620 hn         1 FKV       0.183500
     38 H11          0.4490    -3.9910     5.9170 ha         1 FKV       0.122500
     39 H12         -3.0580    -2.7500     3.8200 ha         1 FKV       0.122500
     40 O1           2.1210     0.0000    -2.2250 o          1 FKV      -0.646500
@<TRIPOS>BOND
     1     1     8 1   
     2     1    12 1   
     3     1    18 2   
     4     2     7 1   
     5     2    17 1   
     6     2    22 1   
     7     2    28 1   
     8     3    22 ar  
     9     3    27 ar  
    10     3    29 1   
    11     4     6 1   
    12     4    23 ar  
    13     4    27 ar  
    14     5    22 ar  
    15     5    23 ar  
    16     5    30 1   
    17     6    24 1   
    18     6    25 1   
    19     6    26 1   
    20     7    31 1   
    21     7    32 1   
    22     7    33 1   
    23     8     9 1   
    24     8    34 1   
    25     8    35 1   
    26     9    19 1   
    27     9    20 1   
    28     9    21 1   
    29    10    13 1   
    30    10    14 2   
    31    10    15 1   
    32    11    12 1   
    33    11    13 1   
    34    11    40 2   
    35    12    16 2   
    36    13    36 1   
    37    15    16 1   
    38    15    37 1   
    39    16    17 1   
    40    17    18 1   
    41    23    38 1   
    42    27    39 1   
@<TRIPOS>SUBSTRUCTURE
     1 FKV         1 TEMP              0 ****  ****    0 ROOT
