@<TRIPOS>MOLECULE
molecule
   61    64     1     0     0
SMALL
bcc


@<TRIPOS>ATOM
      1 C5           0.0000     0.0000     0.0000 cc         1 FKY      -0.227600
      2 C6          -1.7730     0.0050     1.8010 c3         1 FKY       0.025600
      3 C7           2.2340     0.0020    -1.1990 ca         1 FKY      -0.223800
      4 C8           3.6210     0.0020    -1.0590 ca         1 FKY      -0.038000
      5 C10          3.7650     0.0040    -3.4670 ca         1 FKY       0.743600
      6 C15          4.6300    -0.7150    -6.9040 c3         1 FKY       0.143600
      7 C20          3.7920     1.1390    -9.7890 c          1 FKY       0.656100
      8 C22          3.4000     2.5510   -10.1400 c3         1 FKY      -0.099100
      9 C24          5.1220     3.4120   -11.7390 ca         1 FKY      -0.074000
     10 C26          4.7240     3.4480   -14.1030 ca         1 FKY       0.135100
     11 C28          3.0370     2.6170   -12.6150 ca         1 FKY      -0.074000
     12 C1           1.3590     0.0000     0.0000 cc         1 FKY       0.329800
     13 N2           1.7690     0.0000     1.2850 nc         1 FKY      -0.715000
     14 C3           0.7270     0.0000     2.0670 cd         1 FKY       0.429400
     15 N4          -0.3920     0.0000     1.3100 na         1 FKY      -0.171900
     16 C9           4.4030     0.0030    -2.2180 ca         1 FKY      -0.361900
     17 N11          2.4450     0.0090    -3.5500 nb         1 FKY      -0.757000
     18 C12          1.6790     0.0080    -2.4780 ca         1 FKY       0.536200
     19 O13          4.5070     0.0050    -4.6000 os         1 FKY      -0.397100
     20 C14          3.7990     0.0060    -5.8400 c3         1 FKY       0.109100
     21 C16          3.8530    -0.7420    -8.2240 c3         1 FKY       0.114000
     22 N17          3.4770     0.6330    -8.5800 n          1 FKY      -0.497800
     23 C18          2.7530     1.4460    -7.5940 c3         1 FKY       0.109000
     24 C19          3.5430     1.4490    -6.2810 c3         1 FKY      -0.122400
     25 O21          4.3910     0.4580   -10.5950 o          1 FKY      -0.572100
     26 C23          3.8660     2.8700   -11.5370 ca         1 FKY      -0.094300
     27 C25          5.5520     3.7050   -13.0190 ca         1 FKY      -0.164000
     28 C27          3.4660     2.8990   -13.8970 ca         1 FKY      -0.164000
     29 C30          4.2390     3.4460   -16.4300 c3         1 FKY       0.795700
     30 F31          3.9470     2.0770   -16.4340 f          1 FKY      -0.202967
     31 F32          3.0580     4.1740   -16.2530 f          1 FKY      -0.202967
     32 F33          4.8270     3.8000   -17.6500 f          1 FKY      -0.202967
     33 F34          5.8400    -0.0360    -7.0900 f          1 FKY      -0.228300
     34 C35          5.8760     0.0040    -2.1290 c          1 FKY       0.504700
     35 N36          6.4780     0.0030    -0.9230 nz         1 FKY      -0.677400
     36 O37          6.5470     0.0050    -3.1440 o          1 FKY      -0.395100
     37 H1          -0.6370    -0.1910    -0.8550 h4         1 FKY       0.182000
     38 H2          -1.7780     0.2300     2.8610 h1         1 FKY       0.067700
     39 H3          -2.2170    -0.9700     1.6370 h1         1 FKY       0.067700
     40 H4          -2.3430     0.7560     1.2690 h1         1 FKY       0.067700
     41 H5           4.0810     0.0010    -0.0780 ha         1 FKY       0.146000
     42 H6           4.8260    -1.7300    -6.5810 h1         1 FKY       0.067700
     43 H7           3.8650     3.1390    -9.3580 hc         1 FKY       0.065200
     44 H8           2.3240     2.6550   -10.0820 hc         1 FKY       0.065200
     45 H9           5.7670     3.6120   -10.8930 ha         1 FKY       0.136500
     46 H10          2.0560     2.1880   -12.4540 ha         1 FKY       0.136500
     47 H11          0.7530     0.0010     3.1500 h5         1 FKY       0.080100
     48 H12          0.6020     0.0100    -2.5920 h4         1 FKY       0.051100
     49 H13          2.8510    -0.5050    -5.7200 h1         1 FKY       0.087700
     50 H14          3.0090    -1.0650    -7.6260 h1         1 FKY       0.078200
     51 H15          4.1930    -1.4200    -8.9970 h1         1 FKY       0.078200
     52 H16          2.6570     2.4600    -7.9610 h1         1 FKY       0.061700
     53 H17          1.7710     1.0200    -7.4250 h1         1 FKY       0.061700
     54 H18          4.4910     1.9530    -6.4320 hc         1 FKY       0.070200
     55 H19          2.9720     1.9640    -5.5180 hc         1 FKY       0.070200
     56 H20          6.5350     4.1320   -13.1770 ha         1 FKY       0.152500
     57 H21          2.8180     2.6990   -14.7420 ha         1 FKY       0.152500
     58 H22          7.4700    -0.0520    -1.0460 hn         1 FKY       0.475800
     59 H23          6.1630    -0.7850    -0.3940 hn         1 FKY       0.475800
     60 H363         6.2490     0.8460    -0.4350 hn         1 FKY       0.475800
     61 O29          5.1440     3.7360   -15.3630 os         1 FKY      -0.338900
@<TRIPOS>BOND
     1     6    21 1
     2     6    33 1
     3     6    20 1
     4    21    22 1
     5     8    26 1
     6     8     7 1
     7    19    20 1
     8    19     5 1
     9    20    24 1
    10    26    11 ar
    11    26     9 ar
    12    35    34 1
    13    22     7 1
    14    22    23 1
    15    11    28 ar
    16     9    27 ar
    17    34    36 2
    18    34    16 1
    19     5    16 ar
    20     5    17 ar
    21     7    25 2
    22    28    10 ar
    23    16     4 ar
    24    17    18 ar
    25    27    10 ar
    26    10    61 1
    27    23    24 1
    28     4     3 ar
    29    18     3 ar
    30    61    29 1
    31     3    12 1
    32    12    13 1
    33    12     1 2
    34    13    14 2
    35    29    31 1
    36    29    30 1
    37    29    32 1
    38     1    15 1
    39    14    15 1
    40    15     2 1
    41     1    37 1
    42     2    38 1
    43     2    39 1
    44     2    40 1
    45     4    41 1
    46     6    42 1
    47     8    43 1
    48     8    44 1
    49     9    45 1
    50    11    46 1
    51    14    47 1
    52    18    48 1
    53    20    49 1
    54    21    50 1
    55    21    51 1
    56    23    52 1
    57    23    53 1
    58    24    54 1
    59    24    55 1
    60    27    56 1
    61    28    57 1
    62    35    58 1
    63    35    59 1
    64    60    35 1
@<TRIPOS>SUBSTRUCTURE
     1 FKY         1 TEMP              0 ****  ****    0 ROOT
