@<TRIPOS>MOLECULE
FKY
   61    64     1     0     0
SMALL
bcc


@<TRIPOS>ATOM
      1 C5           0.0000     0.0000     0.0000 cc         1 FKY      -0.387600
      2 C6          -1.7730     0.0050     1.8010 c3         1 FKY      -0.015400
      3 C7           2.2340     0.0020    -1.1990 ca         1 FKY      -0.209800
      4 C8           3.6210     0.0020    -1.0590 ca         1 FKY      -0.016000
      5 C10          3.7650     0.0040    -3.4670 ca         1 FKY       0.718600
      6 C15          4.6300    -0.7150    -6.9040 c3         1 FKY       0.150600
      7 C20          3.7920     1.1390    -9.7890 c          1 FKY       0.581100
      8 C22          3.4000     2.5510   -10.1400 c3         1 FKY      -0.030100
      9 C24          5.1220     3.4120   -11.7390 ca         1 FKY      -0.040000
     10 C26          4.7240     3.4480   -14.1030 ca         1 FKY       0.145100
     11 C28          3.0370     2.6170   -12.6150 ca         1 FKY      -0.040000
     12 C1           1.3590     0.0000     0.0000 cd         1 FKY       0.308800
     13 N2           1.7690     0.0000     1.2850 nd         1 FKY      -0.630000
     14 C3           0.7270     0.0000     2.0670 cc         1 FKY       0.251400
     15 N4          -0.3920     0.0000     1.3100 na         1 FKY       0.315100
     16 C9           4.4030     0.0030    -2.2180 ca         1 FKY      -0.388900
     17 N11          2.4450     0.0090    -3.5500 nb         1 FKY      -0.651000
     18 C12          1.6790     0.0080    -2.4780 ca         1 FKY       0.526200
     19 O13          4.5070     0.0050    -4.6000 os         1 FKY      -0.380100
     20 C14          3.7990     0.0060    -5.8400 c3         1 FKY       0.136100
     21 C16          3.8530    -0.7420    -8.2240 c3         1 FKY       0.059000
     22 N17          3.4770     0.6330    -8.5800 n          1 FKY      -0.167800
     23 C18          2.7530     1.4460    -7.5940 c3         1 FKY       0.055000
     24 C19          3.5430     1.4490    -6.2810 c3         1 FKY      -0.072400
     25 O21          4.3910     0.4580   -10.5950 o          1 FKY      -0.609100
     26 C23          3.8660     2.8700   -11.5370 ca         1 FKY      -0.100300
     27 C25          5.5520     3.7050   -13.0190 ca         1 FKY      -0.152500
     28 C27          3.4660     2.8990   -13.8970 ca         1 FKY      -0.152500
     29 C30          4.2390     3.4460   -16.4300 c3         1 FKY       0.756700
     30 F31          3.9470     2.0770   -16.4340 f          1 FKY      -0.195967
     31 F32          3.0580     4.1740   -16.2530 f          1 FKY      -0.195967
     32 F33          4.8270     3.8000   -17.6500 f          1 FKY      -0.195967
     33 F34          5.8400    -0.0360    -7.0900 f          1 FKY      -0.220300
     34 C35          5.8760     0.0040    -2.1290 c          1 FKY       0.354700
     35 N36          6.4780     0.0030    -0.9230 nz         1 FKY       0.201600
     36 O37          6.5470     0.0050    -3.1440 o          1 FKY      -0.412100
     37 H1          -0.6370    -0.1910    -0.8550 h4         1 FKY       0.160000
     38 H2          -1.7780     0.2300     2.8610 h1         1 FKY       0.034700
     39 H3          -2.2170    -0.9700     1.6370 h1         1 FKY       0.034700
     40 H4          -2.3430     0.7560     1.2690 h1         1 FKY       0.034700
     41 H5           4.0810     0.0010    -0.0780 ha         1 FKY       0.112000
     42 H6           4.8260    -1.7300    -6.5810 h1         1 FKY       0.037700
     43 H7           3.8650     3.1390    -9.3580 hc         1 FKY       0.031200
     44 H8           2.3240     2.6550   -10.0820 hc         1 FKY       0.031200
     45 H9           5.7670     3.6120   -10.8930 ha         1 FKY       0.105000
     46 H10          2.0560     2.1880   -12.4540 ha         1 FKY       0.105000
     47 H11          0.7530     0.0010     3.1500 h5         1 FKY       0.035100
     48 H12          0.6020     0.0100    -2.5920 h4         1 FKY      -0.000900
     49 H13          2.8510    -0.5050    -5.7200 h1         1 FKY       0.058700
     50 H14          3.0090    -1.0650    -7.6260 h1         1 FKY       0.049200
     51 H15          4.1930    -1.4200    -8.9970 h1         1 FKY       0.049200
     52 H16          2.6570     2.4600    -7.9610 h1         1 FKY       0.034200
     53 H17          1.7710     1.0200    -7.4250 h1         1 FKY       0.034200
     54 H18          4.4910     1.9530    -6.4320 hc         1 FKY       0.040200
     55 H19          2.9720     1.9640    -5.5180 hc         1 FKY       0.040200
     56 H20          6.5350     4.1320   -13.1770 ha         1 FKY       0.127000
     57 H21          2.8180     2.6990   -14.7420 ha         1 FKY       0.127000
     58 H22          7.4700    -0.0520    -1.0460 hn         1 FKY       0.245133
     59 H23          6.1630    -0.7850    -0.3940 hn         1 FKY       0.245133
     60 H363         6.2490     0.8460    -0.4350 hn         1 FKY       0.245133
     61 O29          5.1440     3.7360   -15.3630 os         1 FKY      -0.312900
@<TRIPOS>BOND
     1     1    12 2   
     2     1    15 1   
     3     1    37 1   
     4     2    15 1   
     5     2    38 1   
     6     2    39 1   
     7     2    40 1   
     8     3     4 ar  
     9     3    12 1   
    10     3    18 ar  
    11     4    16 ar  
    12     4    41 1   
    13     5    16 ar  
    14     5    17 ar  
    15     5    19 1   
    16     6    20 1   
    17     6    21 1   
    18     6    33 1   
    19     6    42 1   
    20     7     8 1   
    21     7    22 1   
    22     7    25 2   
    23     8    26 1   
    24     8    43 1   
    25     8    44 1   
    26     9    26 ar  
    27     9    27 ar  
    28     9    45 1   
    29    10    27 ar  
    30    10    28 ar  
    31    10    61 1   
    32    11    26 ar  
    33    11    28 ar  
    34    11    46 1   
    35    12    13 1   
    36    13    14 2   
    37    14    15 1   
    38    14    47 1   
    39    16    34 1   
    40    17    18 ar  
    41    18    48 1   
    42    19    20 1   
    43    20    24 1   
    44    20    49 1   
    45    21    22 1   
    46    21    50 1   
    47    21    51 1   
    48    22    23 1   
    49    23    24 1   
    50    23    52 1   
    51    23    53 1   
    52    24    54 1   
    53    24    55 1   
    54    27    56 1   
    55    28    57 1   
    56    29    30 1   
    57    29    31 1   
    58    29    32 1   
    59    29    61 1   
    60    34    35 1   
    61    34    36 2   
    62    35    58 1   
    63    35    59 1   
    64    35    60 1   
@<TRIPOS>SUBSTRUCTURE
     1 FKY         1 TEMP              0 ****  ****    0 ROOT
