@<TRIPOS>MOLECULE
FL1
   65    69     1     0     0
SMALL
bcc


@<TRIPOS>ATOM
      1 S1         -2.6290    1.3660    0.0120 sy        1 FL1      1.521200
      2 O1         -1.5380    0.5250    0.2940 o         1 FL1     -0.643300
      3 O2         -3.0630    2.2750    0.9940 o         1 FL1     -0.643300
      4 N1         -3.8580    0.5080   -0.5230 n3        1 FL1     -1.029700
      5 C1         -2.1810    2.3040   -1.3580 ca        1 FL1     -0.332500
      6 C2         -1.2350    1.8250   -2.2690 ca        1 FL1     -0.010500
      7 C3         -0.8190    2.6080   -3.3430 ca        1 FL1     -0.145000
      8 C4         -1.3480    3.8920   -3.5160 ca        1 FL1     -0.075300
      9 C5         -2.3030    4.3760   -2.6170 ca        1 FL1     -0.145000
     10 C6         -2.7130    3.5830   -1.5470 ca        1 FL1     -0.010500
     11 C7         -0.8930    4.7360   -4.6580 c3        1 FL1     -0.054100
     12 C29         0.4660    5.3450   -4.3080 c3        1 FL1      0.083800
     13 N2          1.0540    6.1780   -5.3970 n4        1 FL1     -0.648800
     14 C8          1.0070    7.6990   -5.1460 c         1 FL1      0.302400
     15 S2          2.4180    8.3620   -5.1680 s         1 FL1     -0.175400
     16 N3         -0.2520    8.1970   -4.9890 n         1 FL1     -0.357100
     17 C9         -0.5560    9.5470   -4.6670 ca        1 FL1     -0.015400
     18 C10         0.2830   10.6290   -4.9950 ca        1 FL1     -0.100000
     19 C11        -0.1050   11.9240   -4.6710 ca        1 FL1     -0.103000
     20 C12        -1.3230   12.1890   -4.0270 ca        1 FL1      0.042000
     21 C13        -2.1650   11.1080   -3.7130 ca        1 FL1     -0.078600
     22 C14        -1.7850    9.7990   -4.0190 ca        1 FL1     -0.095000
     23 C15        -3.4790   11.3040   -3.0660 c         1 FL1      0.639700
     24 O3         -4.3060   12.2010   -3.2240 o         1 FL1     -0.488000
     25 O4         -3.8110   10.3020   -2.1970 oh        1 FL1     -0.616100
     26 C16        -1.6570   13.5810   -3.6980 cc        1 FL1      0.021000
     27 C17        -2.4660   14.0690   -5.9980 cd        1 FL1     -0.086200
     28 C18        -2.9770   14.9420   -6.8820 cc        1 FL1     -0.194200
     29 C19        -3.2770   16.3430   -6.5210 c         1 FL1      0.561500
     30 C20        -2.9930   16.7220   -5.1340 cc        1 FL1     -0.269200
     31 C21        -1.4880   15.9460   -0.7800 ca        1 FL1     -0.306300
     32 C22        -0.9350   15.1190    0.2000 ca        1 FL1      0.187100
     33 C23        -0.6010   13.7730   -0.0800 ca        1 FL1     -0.177000
     34 C24        -0.8310   13.2670   -1.3430 ca        1 FL1     -0.056000
     35 C25        -1.3920   14.0630   -2.3610 ca        1 FL1     -0.224300
     36 C26        -1.7090   15.4030   -2.0560 ca        1 FL1      0.411000
     37 C27        -2.1730   14.4380   -4.6250 cd        1 FL1     -0.129100
     38 C28        -2.4790   15.8190   -4.2630 cd        1 FL1      0.303700
     39 O5         -2.2510   16.2830   -2.9710 os        1 FL1     -0.378800
     40 O6         -3.7380   17.1420   -7.3460 o         1 FL1     -0.510100
     41 O7         -0.6800   15.5490    1.4740 oh        1 FL1     -0.479100
     42 HN11       -4.6720   10.5020   -1.7890 ho        1 FL1      0.463000
     43 HN12       -4.8040    0.7910   -0.4430 hn        1 FL1      0.457800
     44 H2         -0.7960    0.8210   -2.1190 ha        1 FL1      0.170000
     45 H3         -0.0780    2.2120   -4.0540 ha        1 FL1      0.136500
     46 H5         -2.7370    5.3780   -2.7490 ha        1 FL1      0.136500
     47 H6         -3.4500    3.9770   -0.8230 ha        1 FL1      0.170000
     48 H71        -1.6480    5.5400   -4.8650 hc        1 FL1      0.066700
     49 H72        -0.8100    4.1020   -5.5820 hc        1 FL1      0.066700
     50 H291        0.3800    5.9710   -3.3740 hx        1 FL1      0.117200
     51 H292        1.1900    4.5040   -4.0870 hx        1 FL1      0.117200
     52 HN2         0.5910    5.9530   -6.2850 hn        1 FL1      0.462800
     53 HN3        -1.0400    7.5780   -4.9520 hn        1 FL1      0.338500
     54 H10         1.2510   10.4720   -5.5030 ha        1 FL1      0.174000
     55 H11         0.5630   12.7660   -4.9280 ha        1 FL1      0.177000
     56 H14        -2.4670    8.9780   -3.7360 ha        1 FL1      0.161000
     57 H17        -2.2540   13.0260   -6.2850 ha        1 FL1      0.128000
     58 H18        -3.2020   14.6560   -7.9230 ha        1 FL1      0.159000
     59 H20        -3.2170   17.7570   -4.8340 ha        1 FL1      0.178000
     60 H21        -1.7520   16.9940   -0.5770 ha        1 FL1      0.170000
     61 H23        -0.1640   13.1550    0.7180 ha        1 FL1      0.163000
     62 H24        -0.5730   12.2190   -1.5640 ha        1 FL1      0.133000
     63 HO7        -0.9520   16.4780    1.5480 ho        1 FL1      0.436000
     64 H13        -3.7680   -0.3980   -0.9140 hn        1 FL1      0.457800
     65 H22         2.0650    5.9630   -5.4920 hn        1 FL1      0.462800
@<TRIPOS>BOND
     1    1    2 2
     2    1    3 2
     3    1    4 1
     4    1    5 1
     5    4   43 1
     6    4   64 1
     7    5    6 ar
     8    5   10 ar
     9    6    7 ar
    10    6   44 1
    11    7    8 ar
    12    7   45 1
    13    8    9 ar
    14    8   11 1
    15    9   10 ar
    16    9   46 1
    17   10   47 1
    18   11   12 1
    19   11   48 1
    20   11   49 1
    21   12   13 1
    22   12   50 1
    23   12   51 1
    24   13   14 1
    25   13   52 1
    26   13   65 1
    27   14   15 2
    28   14   16 1
    29   16   17 1
    30   16   53 1
    31   17   18 ar
    32   17   22 ar
    33   18   19 ar
    34   18   54 1
    35   19   20 ar
    36   19   55 1
    37   20   21 ar
    38   20   26 1
    39   21   22 ar
    40   21   23 1
    41   22   56 1
    42   23   24 2
    43   23   25 1
    44   25   42 1
    45   26   35 1
    46   26   37 2
    47   27   28 2
    48   27   37 1
    49   27   57 1
    50   28   29 1
    51   28   58 1
    52   29   30 1
    53   29   40 2
    54   30   38 2
    55   30   59 1
    56   31   32 ar
    57   31   36 ar
    58   31   60 1
    59   32   33 ar
    60   32   41 1
    61   33   34 ar
    62   33   61 1
    63   34   35 ar
    64   34   62 1
    65   35   36 ar
    66   36   39 1
    67   37   38 1
    68   38   39 1
    69   41   63 1
@<TRIPOS>SUBSTRUCTURE
     1 FL1         1 TEMP              0 ****  ****    0 ROOT
