@<TRIPOS>MOLECULE
FL2
   34    35     1     0     0
SMALL
bcc


@<TRIPOS>ATOM
      1 C          -0.0590   -0.2580    0.2180 ca        1 FL2     -0.131500
      2 C1          1.3300   -0.3320    0.1380 ca        1 FL2     -0.110500
      3 C2          2.1200   -0.0480    1.2610 cp        1 FL2     -0.044000
      4 C3          1.4930    0.3040    2.4660 ca        1 FL2     -0.110500
      5 C4          0.1040    0.3720    2.5420 ca        1 FL2     -0.131500
      6 C5         -0.6750    0.0930    1.4190 ca        1 FL2     -0.122000
      7 C6          3.5780   -0.0940    1.1860 cp        1 FL2     -0.059000
      8 C7          4.3330    0.9330    1.7690 ca        1 FL2     -0.102000
      9 C8          5.7230    0.9300    1.7200 ca        1 FL2     -0.133000
     10 C9          6.4030   -0.1130    1.0810 ca        1 FL2     -0.065300
     11 C10         5.6790   -1.1530    0.4970 ca        1 FL2     -0.154000
     12 C11         4.2720   -1.1470    0.5450 ca        1 FL2      0.136900
     13 C12         7.8980   -0.0920    1.0080 c3        1 FL2     -0.060400
     14 C13         8.3750    0.1770   -0.4090 c3        1 FL2     -0.091100
     15 C14         8.4700   -1.4060    1.4820 c         1 FL2      0.633100
     16 O           8.4250   -2.5140    0.9430 o         1 FL2     -0.538000
     17 O1          9.1390   -1.2910    2.6690 os        1 FL2     -0.437900
     18 F           3.6030   -2.1760   -0.0300 f         1 FL2     -0.133900
     19 C16         9.7130   -2.4850    3.2040 c3        1 FL2      0.124700
     20 H          -0.6690   -0.4810   -0.6690 ha        1 FL2      0.133500
     21 H1          1.8140   -0.6200   -0.8080 ha        1 FL2      0.137500
     22 H3          2.1030    0.5190    3.3560 ha        1 FL2      0.137500
     23 H4         -0.3790    0.6440    3.4930 ha        1 FL2      0.133500
     24 H5         -1.7720    0.1490    1.4810 ha        1 FL2      0.132000
     25 H7          3.8080    1.7620    2.2710 ha        1 FL2      0.143000
     26 H8          6.2870    1.7510    2.1870 ha        1 FL2      0.139000
     27 H10         6.2050   -1.9900    0.0080 ha        1 FL2      0.172000
     28 H12         8.2900    0.7210    1.6870 hc        1 FL2      0.087700
     29 H131        8.0590   -0.6530   -1.0870 hc        1 FL2      0.052367
     30 H132        9.4880    0.2560   -0.4310 hc        1 FL2      0.052367
     31 H133        7.9370    1.1350   -0.7790 hc        1 FL2      0.052367
     32 H161       10.1870   -2.1460    4.1580 h1        1 FL2      0.052033
     33 H162       10.4690   -2.8940    2.4920 h1        1 FL2      0.052033
     34 H163        8.9130   -3.2410    3.3890 h1        1 FL2      0.052033
@<TRIPOS>BOND
     1    1    2 ar  
     2    1    6 ar  
     3    1   20 1   
     4    2    3 ar  
     5    2   21 1   
     6    3    4 ar  
     7    3    7 1   
     8    4    5 ar  
     9    4   22 1   
    10    5    6 ar  
    11    5   23 1   
    12    6   24 1   
    13    7    8 ar  
    14    7   12 ar  
    15    8    9 ar  
    16    8   25 1   
    17    9   10 ar  
    18    9   26 1   
    19   10   11 ar  
    20   10   13 1   
    21   11   12 ar  
    22   11   27 1   
    23   12   18 1   
    24   13   14 1   
    25   13   15 1   
    26   13   28 1   
    27   14   29 1   
    28   14   30 1   
    29   14   31 1   
    30   15   16 2   
    31   15   17 1   
    32   17   19 1   
    33   19   32 1   
    34   19   33 1   
    35   19   34 1   
@<TRIPOS>SUBSTRUCTURE
     1 FL2         1 TEMP              0 ****  ****    0 ROOT
