@<TRIPOS>MOLECULE
molecule
   34    35     1     0     0
SMALL
bcc


@<TRIPOS>ATOM
      1 C            0.0000     0.0000     0.0000 ca         1 FL2      -0.130000
      2 C1           1.3800     0.0000     0.0000 ca         1 FL2      -0.107500
      3 C2           2.0750     0.0000     1.2080 cp         1 FL2      -0.044000
      4 C3           1.3700    -0.0060     2.4100 ca         1 FL2      -0.107500
      5 C4          -0.0100     0.0000     2.3980 ca         1 FL2      -0.130000
      6 C5          -0.6930     0.0000     1.1960 ca         1 FL2      -0.123000
      7 C6           3.5580    -0.0010     1.2140 cp         1 FL2      -0.070000
      8 C7           4.2550     1.0430     1.8190 ca         1 FL2      -0.094000
      9 C8           5.6340     1.0380     1.8230 ca         1 FL2      -0.133000
     10 C9           6.3280    -0.0000     1.2280 ca         1 FL2      -0.055300
     11 C10          5.6430    -1.0360     0.6210 ca         1 FL2      -0.133000
     12 C11          4.2620    -1.0460     0.6150 ca         1 FL2       0.144900
     13 C12          7.8340     0.0010     1.2360 c3         1 FL2      -0.065400
     14 C13          8.3520     0.0000    -0.2040 c3         1 FL2      -0.083100
     15 C14          8.3340    -1.2280     1.9490 c          1 FL2       0.635100
     16 O            7.5480    -2.0230     2.4050 o          1 FL2      -0.537000
     17 O1           9.6540    -1.4390     2.0790 os         1 FL2      -0.441900
     18 F            3.5930    -2.0610     0.0250 f          1 FL2      -0.133900
     19 C16         10.1350    -2.6230     2.7670 c3         1 FL2       0.146700
     20 H           -0.5410    -0.0000    -0.9390 ha         1 FL2       0.131000
     21 H1           1.9230     0.0030    -0.9380 ha         1 FL2       0.135500
     22 H3           1.9050    -0.0060     3.3520 ha         1 FL2       0.135500
     23 H4          -0.5590    -0.0020     3.3320 ha         1 FL2       0.131000
     24 H5          -1.7770     0.0030     1.1920 ha         1 FL2       0.129000
     25 H7           3.7140     1.8580     2.2860 ha         1 FL2       0.143000
     26 H8           6.1760     1.8490     2.2950 ha         1 FL2       0.134000
     27 H10          6.1910    -1.8470     0.1560 ha         1 FL2       0.151000
     28 H12          8.1920     0.8860     1.7480 hc         1 FL2       0.082700
     29 H131         9.3240     0.4780    -0.2380 hc         1 FL2       0.048033
     30 H132         7.6600     0.5430    -0.8360 hc         1 FL2       0.048033
     31 H133         8.4380    -1.0200    -0.5560 hc         1 FL2       0.048033
     32 H161         9.7590    -2.6280     3.7830 h1         1 FL2       0.048700
     33 H162         9.7880    -3.5080     2.2490 h1         1 FL2       0.048700
     34 H163        11.2180    -2.6150     2.7840 h1         1 FL2       0.048700
@<TRIPOS>BOND
     1     1     2 ar
     2     1     6 ar
     3     1    20 1
     4     2     3 ar
     5     2    21 1
     6     3     4 ar
     7     3     7 1
     8     4     5 ar
     9     4    22 1
    10     5     6 ar
    11     5    23 1
    12     6    24 1
    13     7     8 ar
    14     7    12 ar
    15     8     9 ar
    16     8    25 1
    17     9    10 ar
    18     9    26 1
    19    10    11 ar
    20    10    13 1
    21    11    12 ar
    22    11    27 1
    23    12    18 1
    24    13    14 1
    25    13    15 1
    26    13    28 1
    27    14    29 1
    28    14    30 1
    29    14    31 1
    30    15    16 2
    31    15    17 1
    32    17    19 1
    33    19    32 1
    34    19    33 1
    35    19    34 1
@<TRIPOS>SUBSTRUCTURE
     1 FL2         1 TEMP              0 ****  ****    0 ROOT
