@<TRIPOS>MOLECULE
molecule
   50    52     1     0     0
SMALL
bcc


@<TRIPOS>ATOM
      1 C            0.0000     0.0000     0.0000 c          1 FL7       0.685500
      2 N            1.9780     0.0000     1.3840 n2         1 FL7      -0.574900
      3 O           -0.5910     0.9460    -0.4770 o          1 FL7      -0.612500
      4 Cl           1.4050    -6.1010     2.6360 cl         1 FL7      -0.100400
      5 CA           1.5050     0.0000     0.0000 c3         1 FL7       0.044800
      6 C13          1.7380    -0.9780     2.1830 ce         1 FL7       0.528500
      7 CAC          1.8610    -0.7060     5.9330 ca         1 FL7      -0.169000
      8 CAD          1.3690    -0.8020     4.6440 ca         1 FL7       0.156900
      9 CAE          2.2550    -0.8740     3.5670 ca         1 FL7      -0.169900
     10 CAJ          3.2260    -0.6810     6.1540 ca         1 FL7      -0.092000
     11 CAK          4.1070    -0.7530     5.0910 ca         1 FL7      -0.147000
     12 CAL          3.6300    -0.8490     3.8000 ca         1 FL7      -0.073000
     13 CAM         -0.8100    -3.3720     0.7510 ca         1 FL7      -0.158000
     14 CAN         -0.1560    -2.1710     1.0390 ca         1 FL7       0.094600
     15 NAO         -0.7010    -1.0090     0.5130 n          1 FL7      -0.376000
     16 CAP         -2.1600    -0.8800     0.5250 c3         1 FL7       0.091000
     17 CAQ         -2.5960    -0.1360     1.7890 c3         1 FL7       0.141800
     18 NAR         -4.0440     0.1030     1.7420 n3         1 FL7      -0.727600
     19 CAS         -4.7890    -1.1620     1.8060 c3         1 FL7       0.157300
     20 CAT         -6.2340    -0.9270     1.3650 c3         1 FL7      -0.094100
     21 CAU         -0.3320    -4.5670     1.2410 ca         1 FL7      -0.086000
     22 CAV          0.9870    -2.1930     1.8270 ca         1 FL7      -0.203900
     23 CAW         -4.4630     1.0160     2.8140 c3         1 FL7       0.157300
     24 CAX         -3.9940     2.4350     2.4870 c3         1 FL7      -0.094100
     25 CAY          0.8080    -4.5920     2.0200 ca         1 FL7       0.005400
     26 CAZ          1.4630    -3.4180     2.3180 ca         1 FL7      -0.072000
     27 HA           1.8560    -0.9000    -0.4910 h1         1 FL7       0.087200
     28 HAA          1.8560     0.9000    -0.4910 h1         1 FL7       0.087200
     29 HAC          1.1760    -0.6490     6.7700 ha         1 FL7       0.149000
     30 HAJ          3.6060    -0.6050     7.1660 ha         1 FL7       0.139000
     31 HAK          5.1750    -0.7330     5.2720 ha         1 FL7       0.139000
     32 HAL          4.3230    -0.9050     2.9680 ha         1 FL7       0.147000
     33 HAM         -1.7050    -3.3620     0.1410 ha         1 FL7       0.150000
     34 HAP         -2.6090    -1.8650     0.5130 h1         1 FL7       0.073700
     35 HAPA        -2.4800    -0.3260    -0.3490 h1         1 FL7       0.073700
     36 HAQ         -2.3570    -0.7340     2.6600 h1         1 FL7       0.049700
     37 HAQA        -2.0750     0.8120     1.8480 h1         1 FL7       0.049700
     38 HAS         -4.3250    -1.8880     1.1490 h1         1 FL7       0.031950
     39 HASA        -4.7780    -1.5360     2.8230 h1         1 FL7       0.031950
     40 HAT         -6.2700    -0.0920     0.6750 hc         1 FL7       0.040700
     41 HATA        -6.8450    -0.7060     2.2320 hc         1 FL7       0.040700
     42 HATB        -6.6120    -1.8160     0.8750 hc         1 FL7       0.040700
     43 HAU         -0.8520    -5.4890     1.0160 ha         1 FL7       0.150000
     44 HAW         -4.0230     0.6970     3.7510 h1         1 FL7       0.031950
     45 HAWA        -5.5430     1.0020     2.8980 h1         1 FL7       0.031950
     46 HAX         -3.0290     2.6110     2.9460 hc         1 FL7       0.040700
     47 HAXA        -3.9100     2.5490     1.4130 hc         1 FL7       0.040700
     48 HAXB        -4.7120     3.1490     2.8710 hc         1 FL7       0.040700
     49 HAZ          2.3540    -3.4410     2.9340 ha         1 FL7       0.156000
     50 FAA          0.0360    -0.8270     4.4270 f          1 FL7      -0.134900
@<TRIPOS>BOND
     1     1     3 2
     2     1     5 1
     3     1    15 1
     4     2     5 1
     5     2     6 2
     6     4    25 1
     7     6     9 1
     8     6    22 1
     9    50     8 1
    10     7     8 ar
    11     7    10 ar
    12     8     9 ar
    13     9    12 ar
    14    10    11 ar
    15    11    12 ar
    16    13    14 ar
    17    13    21 ar
    18    14    15 1
    19    14    22 ar
    20    15    16 1
    21    16    17 1
    22    17    18 1
    23    18    19 1
    24    18    23 1
    25    19    20 1
    26    21    25 ar
    27    22    26 ar
    28    23    24 1
    29    25    26 ar
    30     5    27 1
    31     5    28 1
    32     7    29 1
    33    10    30 1
    34    11    31 1
    35    12    32 1
    36    13    33 1
    37    16    34 1
    38    16    35 1
    39    17    36 1
    40    17    37 1
    41    19    38 1
    42    19    39 1
    43    20    40 1
    44    20    41 1
    45    20    42 1
    46    21    43 1
    47    23    44 1
    48    23    45 1
    49    24    46 1
    50    24    47 1
    51    24    48 1
    52    26    49 1
@<TRIPOS>SUBSTRUCTURE
     1 FL7         1 TEMP              0 ****  ****    0 ROOT
