@<TRIPOS>MOLECULE
FL8
   32    34     1     0     0
SMALL
bcc


@<TRIPOS>ATOM
      1 BR3         0.0180   -0.2240   -0.2750 br        1 FL8     -0.056100
      2 BR5         4.2830    0.2780   -4.1180 br        1 FL8     -0.056100
      3 O1          6.1020    0.8400    0.8650 os        1 FL8     -0.220200
      4 C2          5.1390   -0.1380    1.0770 cc        1 FL8      0.184900
      5 C3          5.1550   -1.0060    2.1210 cd        1 FL8     -0.246400
      6 C4          6.2160   -0.9440    3.1400 c         1 FL8      0.589900
      7 C4A         7.2210    0.1060    2.9160 ca        1 FL8     -0.177600
      8 C5          8.2900    0.2860    3.8060 ca        1 FL8     -0.137000
      9 C6          9.2260    1.2900    3.5600 ca        1 FL8      0.094100
     10 C7          9.1180    2.1300    2.4300 ca        1 FL8     -0.101000
     11 C8          8.0660    1.9570    1.5470 ca        1 FL8     -0.125000
     12 C8A         7.1210    0.9420    1.7980 ca        1 FL8      0.109100
     13 C1'         4.1430   -0.0860    0.0020 ca        1 FL8     -0.108800
     14 C2'         2.7790   -0.1600    0.2950 ca        1 FL8     -0.022500
     15 C3'         1.8340   -0.1150   -0.7300 ca        1 FL8     -0.099900
     16 C4'         2.2570    0.0120   -2.0700 ca        1 FL8      0.205100
     17 C5'         3.6360    0.1000   -2.3690 ca        1 FL8     -0.099900
     18 C6'         4.5620    0.0550   -1.3280 ca        1 FL8     -0.022500
     19 O4'         1.3880    0.0580   -3.1240 oh        1 FL8     -0.469100
     20 C3B         4.1350   -2.0630    2.3030 c3        1 FL8     -0.045900
     21 O4          6.2640   -1.7160    4.1090 o         1 FL8     -0.541100
     22 O6         10.3010    1.5280    4.3860 oh        1 FL8     -0.494100
     23 H51         8.3680   -0.3730    4.6850 ha        1 FL8      0.164000
     24 H71         9.8750    2.9120    2.2670 ha        1 FL8      0.160000
     25 H81         7.9550    2.5960    0.6590 ha        1 FL8      0.159000
     26 H2'1        2.4540   -0.2510    1.3470 ha        1 FL8      0.165500
     27 H6'1        5.6430    0.1340   -1.5410 ha        1 FL8      0.165500
     28 H4'O        0.4790   -0.0070   -2.7830 ho        1 FL8      0.440000
     29 H3'1        4.6040   -2.9660    2.7710 hc        1 FL8      0.054367
     30 H3'2        3.3280   -1.7020    2.9910 hc        1 FL8      0.054367
     31 H3'3        3.6720   -2.3600    1.3300 hc        1 FL8      0.054367
     32 HO61       10.2630    0.8930    5.1170 ho        1 FL8      0.425000
@<TRIPOS>BOND
     1    1   15 1   
     2    2   17 1   
     3    3    4 1   
     4    3   12 1   
     5    4    5 2   
     6    4   13 1   
     7    5    6 1   
     8    5   20 1   
     9    6    7 1   
    10    6   21 2   
    11    7    8 ar  
    12    7   12 ar  
    13    8    9 ar  
    14    8   23 1   
    15    9   10 ar  
    16    9   22 1   
    17   10   11 ar  
    18   10   24 1   
    19   11   12 ar  
    20   11   25 1   
    21   13   14 ar  
    22   13   18 ar  
    23   14   15 ar  
    24   14   26 1   
    25   15   16 ar  
    26   16   17 ar  
    27   16   19 1   
    28   17   18 ar  
    29   18   27 1   
    30   19   28 1   
    31   20   29 1   
    32   20   30 1   
    33   20   31 1   
    34   22   32 1   
@<TRIPOS>SUBSTRUCTURE
     1 FL8         1 TEMP              0 ****  ****    0 ROOT
