@<TRIPOS>MOLECULE
molecule
   31    33     1     0     0
SMALL
bcc


@<TRIPOS>ATOM
      1 C2           0.0000     0.0000     0.0000 cc         1 FL9      -0.039100
      2 C3           1.4680     0.0000     0.0000 c          1 FL9       0.573900
      3 C3A          1.8390     0.0000     1.4240 ca         1 FL9      -0.297600
      4 C4           3.0690     0.0010     2.0940 ca         1 FL9       0.236100
      5 C5           3.0950     0.0010     3.4760 ca         1 FL9      -0.255000
      6 C6           1.9030     0.0010     4.1920 ca         1 FL9       0.192100
      7 C7           0.6830    -0.0040     3.5340 ca         1 FL9      -0.197000
      8 C7A          0.6350     0.0010     2.1460 ca         1 FL9       0.178100
      9 C21         -0.8030     0.0010    -1.0970 cf         1 FL9      -0.035200
     10 C1'         -2.2510    -0.1600    -0.9450 ca         1 FL9      -0.098800
     11 C2'         -3.0430    -0.5090    -2.0520 ca         1 FL9       0.174100
     12 C3'         -4.4100    -0.6630    -1.8970 ca         1 FL9      -0.096900
     13 C4'         -4.9960    -0.4610    -0.6570 ca         1 FL9       0.178100
     14 C5'         -4.2140    -0.1120     0.4410 ca         1 FL9      -0.062900
     15 C6'         -2.8540     0.0410     0.3030 ca         1 FL9      -0.047000
     16 Br1         -5.4810    -1.1390    -3.3820 br         1 FL9      -0.054100
     17 Br2         -5.0270     0.1600     2.1280 br         1 FL9      -0.064100
     18 O1          -0.4100    -0.0000     1.2900 os         1 FL9      -0.207200
     19 O3           2.2150    -0.0000    -0.9650 o          1 FL9      -0.479100
     20 O4           4.2290    -0.0000     1.3900 oh         1 FL9      -0.493100
     21 O6           1.9350     0.0010     5.5490 oh         1 FL9      -0.513100
     22 O2'         -2.4680    -0.7050    -3.2660 oh         1 FL9      -0.501100
     23 O4'         -6.3380    -0.6080    -0.5110 oh         1 FL9      -0.498100
     24 H5           4.0420     0.0050     4.0010 ha         1 FL9       0.157000
     25 H7          -0.2380    -0.0040     4.1050 ha         1 FL9       0.158000
     26 H21         -0.3630     0.0010    -2.0870 ha         1 FL9       0.184000
     27 H6'         -2.2490     0.3130     1.1600 ha         1 FL9       0.181000
     28 HO4          4.7350     0.7630     1.6160 ho         1 FL9       0.430000
     29 HO6          1.9600     0.8890     5.8630 ho         1 FL9       0.430000
     30 HO2'        -2.7010     0.0040    -3.8420 ho         1 FL9       0.434000
     31 HO4'        -6.7650     0.2140    -0.6850 ho         1 FL9       0.434000
@<TRIPOS>BOND
     1     1     2 1
     2     1     9 2
     3     1    18 1
     4     2     3 1
     5     2    19 2
     6     3     4 ar
     7     3     8 ar
     8     4     5 ar
     9     4    20 1
    10     5     6 ar
    11     5    24 1
    12     6     7 ar
    13     6    21 1
    14     7     8 ar
    15     7    25 1
    16     8    18 1
    17     9    10 1
    18     9    26 1
    19    10    11 ar
    20    10    15 ar
    21    11    12 ar
    22    11    22 1
    23    12    13 ar
    24    12    16 1
    25    13    14 ar
    26    13    23 1
    27    14    15 ar
    28    14    17 1
    29    15    27 1
    30    20    28 1
    31    21    29 1
    32    22    30 1
    33    23    31 1
@<TRIPOS>SUBSTRUCTURE
     1 FL9         1 TEMP              0 ****  ****    0 ROOT
