@<TRIPOS>MOLECULE
FL9
   31    33     1     0     0
SMALL
bcc


@<TRIPOS>ATOM
      1 C2          0.0140   -0.1650    0.0970 cc        1 FL9     -0.062100
      2 C3          1.5150   -0.1510    0.0020 c         1 FL9      0.604900
      3 C3A         1.9570   -0.0660    1.4010 ca        1 FL9     -0.308600
      4 C4          3.2050   -0.0180    2.0250 ca        1 FL9      0.265100
      5 C5          3.2770    0.0620    3.4300 ca        1 FL9     -0.299000
      6 C6          2.0980    0.0920    4.1860 ca        1 FL9      0.222100
      7 C7          0.8150    0.0460    3.5950 ca        1 FL9     -0.278000
      8 C7A         0.7910   -0.0320    2.2150 ca        1 FL9      0.208100
      9 C21        -0.8610   -0.2470   -0.9150 cf        1 FL9     -0.030200
     10 C1'        -2.3060   -0.2630   -0.8590 ca        1 FL9     -0.128800
     11 C2'        -3.0340   -0.6440   -2.0180 ca        1 FL9      0.222100
     12 C3'        -4.4410   -0.6740   -2.0290 ca        1 FL9     -0.162900
     13 C4'        -5.1310   -0.3080   -0.8530 ca        1 FL9      0.238100
     14 C5'        -4.4200    0.0780    0.3010 ca        1 FL9     -0.165900
     15 C6'        -3.0250    0.0950    0.2820 ca        1 FL9      0.005000
     16 BR1        -5.3610   -1.1900   -3.5820 br        1 FL9     -0.050100
     17 BR2        -5.2990    0.5780    1.8800 br        1 FL9     -0.074100
     18 O1         -0.3800   -0.0860    1.4590 os        1 FL9     -0.232200
     19 O3          2.1650   -0.2020   -1.0370 o         1 FL9     -0.492100
     20 O4          4.3230   -0.0510    1.2420 oh        1 FL9     -0.461100
     21 O6          2.2580    0.1700    5.5450 oh        1 FL9     -0.487100
     22 O2'        -2.2730   -0.9770   -3.1050 oh        1 FL9     -0.482100
     23 O4'        -6.4970   -0.3490   -0.9000 oh        1 FL9     -0.471100
     24 H5          4.2490    0.1010    3.9410 ha        1 FL9      0.160000
     25 H7         -0.1010    0.0690    4.1950 ha        1 FL9      0.160000
     26 H21        -0.4200   -0.3210   -1.9330 ha        1 FL9      0.179000
     27 H6'        -2.4740    0.4040    1.1900 ha        1 FL9      0.175000
     28 HO4         5.1010   -0.0110    1.8210 ho        1 FL9      0.429000
     29 HO6         1.3790    0.1820    5.9550 ho        1 FL9      0.430000
     30 HO2'       -2.8610   -1.2170   -3.8440 ho        1 FL9      0.443000
     31 HO4'       -6.8470   -0.0770   -0.0330 ho        1 FL9      0.442000
@<TRIPOS>BOND
     1    1    2 1   
     2    1    9 2   
     3    1   18 1   
     4    2    3 1   
     5    2   19 2   
     6    3    4 ar  
     7    3    8 ar  
     8    4    5 ar  
     9    4   20 1   
    10    5    6 ar  
    11    5   24 1   
    12    6    7 ar  
    13    6   21 1   
    14    7    8 ar  
    15    7   25 1   
    16    8   18 1   
    17    9   10 1   
    18    9   26 1   
    19   10   11 ar  
    20   10   15 ar  
    21   11   12 ar  
    22   11   22 1   
    23   12   13 ar  
    24   12   16 1   
    25   13   14 ar  
    26   13   23 1   
    27   14   15 ar  
    28   14   17 1   
    29   15   27 1   
    30   20   28 1   
    31   21   29 1   
    32   22   30 1   
    33   23   31 1   
@<TRIPOS>SUBSTRUCTURE
     1 FL9         1 TEMP              0 ****  ****    0 ROOT
