@<TRIPOS>MOLECULE
FLB
   32    32     1     0     0
SMALL
bcc


@<TRIPOS>ATOM
      1 C1          0.1360    0.5950   -0.0270 c3        1 FLB     -0.098100
      2 C2          1.4880   -0.0790   -0.0150 c3        1 FLB      0.131400
      3 C3          3.3770   -0.3630    1.3880 c3        1 FLB      0.126400
      4 C6          3.5200   -2.6520    5.4720 ca        1 FLB     -0.111500
      5 C5          3.8210   -1.4230    4.8490 ca        1 FLB      0.130100
      6 C7          3.6990   -2.7710    6.8460 ca        1 FLB     -0.138300
      7 C4          3.7970   -0.1390    2.8370 c3        1 FLB      0.121400
      8 C10         4.2910   -0.3390    5.5980 ca        1 FLB     -0.111500
      9 C8          4.1650   -1.6970    7.6120 ca        1 FLB     -0.075000
     10 C9          4.4560   -0.4910    6.9780 ca        1 FLB     -0.138300
     11 O1          2.0780    0.2040    1.2550 os        1 FLB     -0.426600
     12 O2          3.6300   -1.4100    3.4860 os        1 FLB     -0.321900
     13 F6          4.5830    0.6920    9.1090 f         1 FLB     -0.231800
     14 C12         4.9840    0.6840    7.7960 c3        1 FLB      0.688700
     15 F4          6.3560    0.7460    7.8600 f         1 FLB     -0.231800
     16 F5          4.6140    1.9180    7.3200 f         1 FLB     -0.231800
     17 C11         3.3950   -4.1000    7.5310 c3        1 FLB      0.688700
     18 F3          2.4300   -4.8540    6.9100 f         1 FLB     -0.231800
     19 F2          4.4780   -4.9420    7.6160 f         1 FLB     -0.231800
     20 F1          2.9550   -3.9840    8.8260 f         1 FLB     -0.231800
     21 H1          0.2490    1.6970    0.1090 hc        1 FLB      0.047367
     22 H2         -0.5010    0.2030    0.8010 hc        1 FLB      0.047367
     23 H3         -0.3660    0.3950   -1.0030 hc        1 FLB      0.047367
     24 H4          1.3880   -1.1900   -0.1400 h1        1 FLB      0.027700
     25 H5          2.1490    0.3220   -0.8300 h1        1 FLB      0.027700
     26 H6          4.0860    0.1640    0.6970 h1        1 FLB      0.048700
     27 H7          3.3540   -1.4590    1.1430 h1        1 FLB      0.048700
     28 H8          3.1460   -3.4940    4.8680 ha        1 FLB      0.169000
     29 H9          4.8760    0.1590    2.8940 h1        1 FLB      0.060700
     30 H10         3.1470    0.6320    3.3280 h1        1 FLB      0.060700
     31 H11         4.5250    0.6280    5.1270 ha        1 FLB      0.169000
     32 H12         4.2890   -1.8030    8.7030 ha        1 FLB      0.172000
@<TRIPOS>BOND
     1    1    2 1   
     2    1   21 1   
     3    1   22 1   
     4    1   23 1   
     5    2   11 1   
     6    2   24 1   
     7    2   25 1   
     8    3    7 1   
     9    3   11 1   
    10    3   26 1   
    11    3   27 1   
    12    4    5 ar  
    13    4    6 ar  
    14    4   28 1   
    15    5    8 ar  
    16    5   12 1   
    17    6    9 ar  
    18    6   17 1   
    19    7   12 1   
    20    7   29 1   
    21    7   30 1   
    22    8   10 ar  
    23    8   31 1   
    24    9   10 ar  
    25    9   32 1   
    26   10   14 1   
    27   13   14 1   
    28   14   15 1   
    29   14   16 1   
    30   17   18 1   
    31   17   19 1   
    32   17   20 1   
@<TRIPOS>SUBSTRUCTURE
     1 FLB         1 TEMP              0 ****  ****    0 ROOT
