@<TRIPOS>MOLECULE
molecule
   32    32     1     0     0
SMALL
bcc


@<TRIPOS>ATOM
      1 C1           0.0000     0.0000     0.0000 c3         1 FLB      -0.091100
      2 C2           1.5300     0.0000     0.0000 c3         1 FLB       0.135400
      3 C3           3.4310     0.0000     1.4610 c3         1 FLB       0.142400
      4 C6           3.2850    -2.5450     5.5200 ca         1 FLB      -0.124500
      5 C5           3.6720    -1.3830     4.8680 ca         1 FLB       0.142100
      6 C7           3.5670    -2.7060     6.8630 ca         1 FLB      -0.147300
      7 C4           3.8240     0.0010     2.9390 c3         1 FLB       0.137400
      8 C10          4.3390    -0.3860     5.5650 ca         1 FLB      -0.124500
      9 C8           4.2310    -1.7130     7.5560 ca         1 FLB      -0.075000
     10 C9           4.6160    -0.5540     6.9080 ca         1 FLB      -0.147300
     11 O1           2.0050     0.0000     1.3480 os         1 FLB      -0.423600
     12 O2           3.3980    -1.2210     3.5460 os         1 FLB      -0.309900
     13 F6           4.5340     0.9800     8.7180 f          1 FLB      -0.219633
     14 C12          5.3400     0.5290     7.6670 c3         1 FLB       0.676700
     15 F4           6.5350     0.0160     8.1840 f          1 FLB      -0.219633
     16 F5           5.6240     1.5930     6.8050 f          1 FLB      -0.219633
     17 C11          3.1470    -3.9680     7.5730 c3         1 FLB       0.676700
     18 F3           2.4960    -4.8170     6.6700 f          1 FLB      -0.219633
     19 F2           4.2780    -4.6130     8.0860 f          1 FLB      -0.219633
     20 F1           2.2770    -3.6470     8.6200 f          1 FLB      -0.219633
     21 H1          -0.3610     0.8610     0.5500 hc         1 FLB       0.046033
     22 H2          -0.3610     0.0460    -1.0200 hc         1 FLB       0.046033
     23 H3          -0.3610    -0.9060     0.4710 hc         1 FLB       0.046033
     24 H4           1.8910     0.8850    -0.5100 h1         1 FLB       0.022700
     25 H5           1.8910    -0.8850    -0.5110 h1         1 FLB       0.022700
     26 H6           3.8310    -0.8850     0.9820 h1         1 FLB       0.039200
     27 H7           3.8310     0.8840     0.9810 h1         1 FLB       0.039200
     28 H8           2.7640    -3.3240     4.9770 ha         1 FLB       0.165000
     29 H9           3.3500     0.8370     3.4390 h1         1 FLB       0.048700
     30 H10          4.9000     0.0910     3.0260 h1         1 FLB       0.048700
     31 H11          4.6410     0.5220     5.0580 ha         1 FLB       0.165000
     32 H12          4.4500    -1.8420     8.6090 ha         1 FLB       0.158000
@<TRIPOS>BOND
     1    20    17 1
     2    19    17 1
     3    17    18 1
     4    17     6 1
     5     4     6 ar
     6     4     5 ar
     7     6     9 ar
     8    12     5 1
     9    12     7 1
    10     5     8 ar
    11     9    10 ar
    12    11     3 1
    13    11     2 1
    14     3     7 1
    15     8    10 ar
    16    10    14 1
    17     1     2 1
    18    15    14 1
    19    14    16 1
    20    14    13 1
    21     1    21 1
    22     1    22 1
    23     1    23 1
    24     2    24 1
    25     2    25 1
    26     3    26 1
    27     3    27 1
    28     4    28 1
    29     7    29 1
    30     7    30 1
    31     8    31 1
    32     9    32 1
@<TRIPOS>SUBSTRUCTURE
     1 FLB         1 TEMP              0 ****  ****    0 ROOT
