@<TRIPOS>MOLECULE
molecule
   18    17     1     0     0
SMALL
bcc


@<TRIPOS>ATOM
      1 CAC          0.0000     0.0000     0.0000 c          1 FLC       0.918600
      2 CA           1.5070     0.0000     0.0000 c3         1 FLC      -0.215900
      3 CB           2.0170     0.0000     1.4430 c3         1 FLC       0.103800
      4 CBC          1.5140    -1.2310     2.1530 c          1 FLC       0.979600
      5 CG           3.5470    -0.0000     1.4430 c3         1 FLC      -0.215900
      6 CGC          4.0490    -0.1240     2.8590 c          1 FLC       0.918600
      7 OA1         -0.6110     0.0000     1.0560 o          1 FLC      -0.870050
      8 OA2         -0.6090     0.0010    -1.0560 o          1 FLC      -0.870050
      9 OB1          0.7810    -1.1140     3.1900 o          1 FLC      -0.882300
     10 OB2          1.8210    -2.3890     1.7170 o          1 FLC      -0.882300
     11 OG1          3.2560    -0.2050     3.7830 o          1 FLC      -0.870050
     12 OG2          5.2480    -0.1440     3.0810 o          1 FLC      -0.870050
     13 OHB          1.5400     1.1670     2.1170 oh         1 FLC      -0.536800
     14 HA1          1.8680    -0.8840    -0.5110 hc         1 FLC      -0.003300
     15 HA2          1.8680     0.8850    -0.5110 hc         1 FLC      -0.003300
     16 HG1          3.9080    -0.8370     0.8570 hc         1 FLC      -0.003300
     17 HG2          3.9080     0.9250     1.0120 hc         1 FLC      -0.003300
     18 HOB          1.8830     1.9360     1.6930 ho         1 FLC       0.308000
@<TRIPOS>BOND
     1     1     2 1
     2     1     7 1
     3     1     8 1
     4     2     3 1
     5     2    14 1
     6     2    15 1
     7     3     4 1
     8     3     5 1
     9     3    13 1
    10     4     9 1
    11     4    10 1
    12     5     6 1
    13     5    16 1
    14     5    17 1
    15     6    11 1
    16     6    12 1
    17    13    18 1
@<TRIPOS>SUBSTRUCTURE
     1 FLC         1 TEMP              0 ****  ****    0 ROOT
