@<TRIPOS>MOLECULE
FLC
   18    17     1     0     0
SMALL
bcc


@<TRIPOS>ATOM
      1 CAC         0.5270    0.9240   -0.3050 c         1 FLC      0.914600
      2 CA          0.8810   -0.3590    0.4440 c3        1 FLC     -0.167900
      3 CB          1.8350   -0.3620    1.6540 c3        1 FLC      0.097800
      4 CBC         1.9030   -1.8420    2.1480 c         1 FLC      0.892600
      5 CG          3.2230    0.1550    1.2680 c3        1 FLC     -0.167900
      6 CGC         4.2050    0.5850    2.3550 c         1 FLC      0.914600
      7 OA1        -0.7000    1.2770   -0.3600 o         1 FLC     -0.907800
      8 OA2         1.3950    1.5620   -0.9820 o         1 FLC     -0.907800
      9 OB1         1.5960   -2.1130    3.3510 o         1 FLC     -0.895300
     10 OB2         2.2230   -2.7680    1.3360 o         1 FLC     -0.895300
     11 OG1         3.8310    1.0350    3.4850 o         1 FLC     -0.907800
     12 OG2         5.4530    0.5460    2.0760 o         1 FLC     -0.907800
     13 OHB         1.2400    0.4430    2.6660 oh        1 FLC     -0.627800
     14 HA1        -0.0840   -0.8100    0.7970 hc        1 FLC      0.035950
     15 HA2         1.3400   -1.0570   -0.3060 hc        1 FLC      0.035950
     16 HG1         3.7170   -0.6470    0.6600 hc        1 FLC      0.035950
     17 HG2         3.0750    1.0520    0.6060 hc        1 FLC      0.035950
     18 HOB         1.8330    0.3620    3.4290 ho        1 FLC      0.422000
@<TRIPOS>BOND
     1    1    2 1   
     2    1    7 1   
     3    1    8 1   
     4    2    3 1   
     5    2   14 1   
     6    2   15 1   
     7    3    4 1   
     8    3    5 1   
     9    3   13 1   
    10    4    9 1   
    11    4   10 1   
    12    5    6 1   
    13    5   16 1   
    14    5   17 1   
    15    6   11 1   
    16    6   12 1   
    17   13   18 1   
@<TRIPOS>SUBSTRUCTURE
     1 FLC         1 TEMP              0 ****  ****    0 ROOT
