@<TRIPOS>MOLECULE
molecule
   98   105     1     0     0
SMALL
bcc


@<TRIPOS>ATOM
      1 C1           0.0000     0.0000     0.0000 ca         1 FLD      -0.022800
      2 N2           1.3140     0.0000     0.0000 na         1 FLD       0.040900
      3 C3           2.0290     0.0000     1.1160 ca         1 FLD      -0.140300
      4 C4           1.4430     0.0000     2.3460 ca         1 FLD      -0.058500
      5 C5          -0.6440     0.0020     3.6520 ca         1 FLD      -0.126000
      6 C6          -2.0000     0.0020     3.6950 ca         1 FLD      -0.009500
      7 N7          -4.1440     0.0030     2.3280 na         1 FLD      -0.125300
      8 C8          -5.6330     0.0030     0.2710 ca         1 FLD      -0.076000
      9 C9          -5.6250     0.0030    -1.1070 ca         1 FLD      -0.155500
     10 C10         -4.4240     0.0020    -1.8080 ca         1 FLD       0.135100
     11 O10         -4.4320     0.0020    -3.1680 os         1 FLD      -0.304900
     12 C11         -3.2220    -0.0050    -1.1260 ca         1 FLD      -0.152000
     13 C12          0.0390     0.0010     2.4260 ca         1 FLD       0.020000
     14 C13         -2.7760     0.0020     2.5270 ca         1 FLD       0.010800
     15 C14         -4.4320     0.0030     0.9750 ca         1 FLD      -0.018700
     16 C15         -3.2180     0.0020     0.2690 cp         1 FLD      -0.065000
     17 C16         -2.1510     0.0020     1.2780 cp         1 FLD      -0.092000
     18 C17         -0.6980     0.0010     1.2120 ca         1 FLD      -0.012000
     19 C18         -5.8030     0.0030    -3.5730 c3         1 FLD       0.096700
     20 C19          2.0170    -0.0000    -1.2850 c3         1 FLD      -0.015700
     21 C20          2.2610    -1.4440    -1.7320 c3         1 FLD       0.070800
     22 N21          2.9660    -1.4440    -3.0210 ny         1 FLD      -0.732000
     23 C22          3.2010    -2.8290    -3.4500 c3         1 FLD       0.096800
     24 C23          3.9340    -2.8300    -4.7920 c3         1 FLD      -0.110900
     25 C24          4.1790    -4.2720    -5.2400 c3         1 FLD      -0.072400
     26 C1X          7.0690    -8.5500   -12.9280 ca         1 FLD      -0.022800
     27 N2X          7.7780    -8.5450   -11.8220 na         1 FLD       0.040900
     28 C3X          9.1040    -8.5460   -11.8220 ca         1 FLD      -0.140300
     29 C4X          9.8230    -8.5460   -12.9790 ca         1 FLD      -0.058500
     30 C5X          9.7970    -8.5460   -15.4400 ca         1 FLD      -0.126000
     31 C6X          9.1020    -8.5470   -16.6040 ca         1 FLD      -0.009500
     32 N7X          6.7950    -8.5470   -17.6740 na         1 FLD      -0.125300
     33 C8X          4.2610    -8.5450   -17.8200 ca         1 FLD      -0.076000
     34 C9X          3.1040    -8.5440   -17.0720 ca         1 FLD      -0.155500
     35 CAX          3.1610    -8.5430   -15.6820 ca         1 FLD       0.135100
     36 OAX          2.0100    -8.5420   -14.9570 os         1 FLD      -0.304900
     37 CBX          4.3820    -8.5440   -15.0370 ca         1 FLD      -0.152000
     38 CCX          9.1320    -8.5460   -14.2030 ca         1 FLD       0.020000
     39 CDX          7.7000    -8.5470   -16.6280 ca         1 FLD       0.010800
     40 CEX          5.5010    -8.5450   -17.1880 ca         1 FLD      -0.018700
     41 CFX          5.5600    -8.5450   -15.7850 cp         1 FLD      -0.065000
     42 CGX          6.9850    -8.5460   -15.4290 cp         1 FLD      -0.092000
     43 CHX          7.7140    -8.5460   -14.1700 ca         1 FLD      -0.012000
     44 CIX          0.9310    -8.5430   -15.8930 c3         1 FLD       0.096700
     45 CJX          7.0750    -8.5450   -10.5370 c3         1 FLD      -0.015700
     46 CKX          6.8310    -7.1020   -10.0890 c3         1 FLD       0.070800
     47 NLX          6.1270    -7.1010    -8.8010 ny         1 FLD      -0.732000
     48 CMX          5.8920    -5.7160    -8.3710 c3         1 FLD       0.096800
     49 CNX          5.1580    -5.7150    -7.0290 c3         1 FLD      -0.110900
     50 COX          4.9140    -4.2730    -6.5820 c3         1 FLD      -0.072400
     51 H1          -0.5420     0.0000    -0.9380 h4         1 FLD       0.198000
     52 H3           3.1110     0.0000     1.0480 h4         1 FLD       0.186000
     53 H4           2.0470     0.0000     3.2450 ha         1 FLD       0.203500
     54 H5          -0.0800     0.0030     4.5770 ha         1 FLD       0.181000
     55 H6          -2.4960     0.0020     4.6580 ha         1 FLD       0.179000
     56 HN7         -4.8270     0.0040     3.0580 hn         1 FLD       0.335700
     57 H8          -6.5740     0.0040     0.8060 ha         1 FLD       0.166500
     58 H9          -6.5630     0.0020    -1.6490 ha         1 FLD       0.179000
     59 H11         -2.2870    -0.0050    -1.6730 ha         1 FLD       0.109000
     60 H181        -6.2930     0.8880    -3.1850 h1         1 FLD       0.060533
     61 H182        -5.8610     0.0040    -4.6550 h1         1 FLD       0.060533
     62 H183        -6.2950    -0.8810    -3.1860 h1         1 FLD       0.060533
     63 H191         2.9660     0.5100    -1.1780 h1         1 FLD       0.106700
     64 H192         1.4140     0.5100    -2.0270 h1         1 FLD       0.106700
     65 H201         1.3110    -1.9540    -1.8400 hx         1 FLD       0.124700
     66 H202         2.8630    -1.9540    -0.9900 hx         1 FLD       0.124700
     67 HN21         3.8430    -0.9720    -2.9210 hn         1 FLD       0.459800
     68 HN22         2.4100    -0.9720    -3.7060 hn         1 FLD       0.459800
     69 H221         2.2520    -3.3400    -3.5580 hx         1 FLD       0.116200
     70 H222         3.8040    -3.3400    -2.7090 hx         1 FLD       0.116200
     71 H231         3.3320    -2.3190    -5.5330 hc         1 FLD       0.073950
     72 H232         4.8840    -2.3190    -4.6850 hc         1 FLD       0.073950
     73 H241         4.7810    -4.7830    -4.4980 hc         1 FLD       0.067200
     74 H242         3.2300    -4.7830    -5.3480 hc         1 FLD       0.067200
     75 H3X          9.6310    -8.5410   -10.8750 h4         1 FLD       0.186000
     76 H4X         10.9060    -8.5470   -12.9560 ha         1 FLD       0.203500
     77 H5X         10.8810    -8.5460   -15.4640 ha         1 FLD       0.181000
     78 H6X          9.6450    -8.5470   -17.5420 ha         1 FLD       0.179000
     79 HN7X         7.0420    -8.5470   -18.6440 hn         1 FLD       0.335700
     80 H8X          4.2060    -8.5460   -18.9020 ha         1 FLD       0.166500
     81 H9X          2.1430    -8.5450   -17.5710 ha         1 FLD       0.179000
     82 H11X         4.4250    -8.5430   -13.9550 ha         1 FLD       0.109000
     83 HX81         0.9920    -9.4280   -16.5140 h1         1 FLD       0.060533
     84 HX82        -0.0110    -8.5420   -15.3580 h1         1 FLD       0.060533
     85 HX83         0.9930    -7.6590   -16.5160 h1         1 FLD       0.060533
     86 HX91         7.6770    -9.0560    -9.7960 h1         1 FLD       0.106700
     87 HX92         6.1250    -9.0550   -10.6450 h1         1 FLD       0.106700
     88 HX01         7.7810    -6.5920    -9.9810 hx         1 FLD       0.124700
     89 HX02         6.2290    -6.5910   -10.8300 hx         1 FLD       0.124700
     90 HN1X         5.2490    -7.5730    -8.9010 hn         1 FLD       0.459800
     91 HN2X         6.6830    -7.5730    -8.1160 hn         1 FLD       0.459800
     92 HX21         5.2890    -5.2050    -9.1130 hx         1 FLD       0.116200
     93 HX22         6.8410    -5.2050    -8.2640 hx         1 FLD       0.116200
     94 HX31         5.7610    -6.2260    -6.2870 hc         1 FLD       0.073950
     95 HX32         4.2080    -6.2260    -7.1360 hc         1 FLD       0.073950
     96 HX41         5.8630    -3.7630    -6.4740 hc         1 FLD       0.067200
     97 HX42         4.3110    -3.7620    -7.3240 hc         1 FLD       0.067200
     98 H1X          5.9870    -8.5500   -12.8780 h4         1 FLD       0.198000
@<TRIPOS>BOND
     1     1     2 1
     2     1    18 ar
     3     1    51 1
     4     2     3 2
     5     2    20 1
     6     3     4 ar
     7     3    52 1
     8     4    13 ar
     9     4    53 1
    10     5     6 ar
    11     5    13 ar
    12     5    54 1
    13     6    14 ar
    14     6    55 1
    15     7    14 1
    16     7    15 1
    17     7    56 1
    18     8     9 ar
    19     8    15 ar
    20     8    57 1
    21     9    10 ar
    22     9    58 1
    23    10    11 1
    24    10    12 ar
    25    11    19 1
    26    12    16 ar
    27    12    59 1
    28    13    18 ar
    29    14    17 ar
    30    15    16 ar
    31    16    17 1
    32    17    18 ar
    33    19    60 1
    34    19    61 1
    35    19    62 1
    36    20    21 1
    37    20    63 1
    38    20    64 1
    39    21    22 1
    40    21    65 1
    41    21    66 1
    42    22    23 1
    43    22    67 1
    44    22    68 1
    45    23    24 1
    46    23    69 1
    47    23    70 1
    48    24    25 1
    49    24    71 1
    50    24    72 1
    51    25    50 1
    52    25    73 1
    53    25    74 1
    54    26    27 1
    55    26    43 ar
    56    26    98 1
    57    27    28 2
    58    27    45 1
    59    28    29 ar
    60    28    75 1
    61    29    38 ar
    62    29    76 1
    63    30    31 ar
    64    30    38 ar
    65    30    77 1
    66    31    39 ar
    67    31    78 1
    68    32    39 1
    69    32    40 1
    70    32    79 1
    71    33    34 ar
    72    33    40 ar
    73    33    80 1
    74    34    35 ar
    75    34    81 1
    76    35    36 1
    77    35    37 ar
    78    36    44 1
    79    37    41 ar
    80    37    82 1
    81    38    43 ar
    82    39    42 ar
    83    40    41 ar
    84    41    42 1
    85    42    43 ar
    86    44    83 1
    87    44    84 1
    88    44    85 1
    89    45    46 1
    90    45    86 1
    91    45    87 1
    92    46    47 1
    93    46    88 1
    94    46    89 1
    95    47    48 1
    96    47    90 1
    97    47    91 1
    98    48    49 1
    99    48    92 1
   100    48    93 1
   101    49    50 1
   102    49    94 1
   103    49    95 1
   104    50    96 1
   105    50    97 1
@<TRIPOS>SUBSTRUCTURE
     1 FLD         1 TEMP              0 ****  ****    0 ROOT
