@<TRIPOS>MOLECULE
FLF
   29    30     1     0     0
SMALL
bcc


@<TRIPOS>ATOM
      1 C1           0.0000     0.0000     0.0000 ca         1 FLF      -0.146600
      2 O1          -1.9510    -0.1010    -1.2730 o          1 FLF      -0.882800
      3 C2           1.3970     0.0000     0.0000 ca         1 FLF      -0.034000
      4 C3           2.0830     0.0000     1.1940 ca         1 FLF      -0.172000
      5 O2          -0.0740     0.1100    -2.4400 o          1 FLF      -0.882800
      6 C4           1.3950     0.0010     2.3970 ca         1 FLF      -0.097000
      7 C5           0.0160     0.0010     2.4140 ca         1 FLF      -0.195000
      8 C6          -0.6950     0.0060     1.2200 ca         1 FLF       0.030600
      9 C7          -0.7400    -0.0000    -1.2740 c          1 FLF       0.984200
     10 N           -2.0830     0.0070     1.2340 nu         1 FLF      -0.202000
     11 C1'         -2.7710    -0.6190     2.2740 ca         1 FLF       0.054600
     12 C2'         -3.9830    -0.1050     2.7170 ca         1 FLF      -0.123000
     13 C3'         -4.6640    -0.7300     3.7430 ca         1 FLF      -0.177300
     14 C4'         -4.1360    -1.8610     4.3370 ca         1 FLF      -0.133000
     15 C5'         -2.9260    -2.3720     3.9030 ca         1 FLF      -0.076000
     16 C6'         -2.2430    -1.7550     2.8740 ca         1 FLF      -0.141000
     17 C7'         -5.9820    -0.1770     4.2190 c3         1 FLF       0.636200
     18 F1          -6.4730    -0.9700     5.2610 f          1 FLF      -0.215633
     19 F2          -5.8000     1.1330     4.6770 f          1 FLF      -0.215633
     20 F3          -6.8970    -0.1780     3.1610 f          1 FLF      -0.215633
     21 H2           1.9400    -0.0030    -0.9380 ha         1 FLF       0.128000
     22 H3           3.1660     0.0000     1.1930 ha         1 FLF       0.087000
     23 H4           1.9440    -0.0010     3.3310 ha         1 FLF       0.081000
     24 H5          -0.5130     0.0040     3.3590 ha         1 FLF       0.106000
     25 HN1         -2.5900     0.4940     0.5210 hn         1 FLF       0.346800
     26 H2'         -4.3980     0.7810     2.2520 ha         1 FLF       0.119000
     27 H4'         -4.6710    -2.3480     5.1430 ha         1 FLF       0.109000
     28 H5'         -2.5140    -3.2580     4.3710 ha         1 FLF       0.095000
     29 H6'         -1.2950    -2.1560     2.5350 ha         1 FLF       0.131000
@<TRIPOS>BOND
     1     1     3 ar  
     2     1     8 ar  
     3     1     9 1   
     4     2     9 1   
     5     3     4 ar  
     6     3    21 1   
     7     4     6 ar  
     8     4    22 1   
     9     5     9 1   
    10     6     7 ar  
    11     6    23 1   
    12     7     8 ar  
    13     7    24 1   
    14     8    10 1   
    15    10    11 1   
    16    10    25 1   
    17    11    12 ar  
    18    11    16 ar  
    19    12    13 ar  
    20    12    26 1   
    21    13    14 ar  
    22    13    17 1   
    23    14    15 ar  
    24    14    27 1   
    25    15    16 ar  
    26    15    28 1   
    27    16    29 1   
    28    17    18 1   
    29    17    19 1   
    30    17    20 1   
@<TRIPOS>SUBSTRUCTURE
     1 FLF         1 TEMP              0 ****  ****    0 ROOT
