@<TRIPOS>MOLECULE
FLG
   49    52     1     0     0
SMALL
bcc


@<TRIPOS>ATOM
      1 S1          0.3410    1.1880   -0.3040 s         1 FLG     -0.340400
      2 C21         1.6410    0.6500    0.4250 c         1 FLG      0.357400
      3 N1          1.6980    0.2560    1.7360 n         1 FLG     -0.368100
      4 C17         2.8180   -0.4370    2.2620 ca        1 FLG     -0.047400
      5 C18         3.3630   -1.4750    1.4930 ca        1 FLG     -0.157000
      6 C19         4.7270   -1.7770    1.6040 ca        1 FLG     -0.103600
      7 C20         5.3070   -2.1890    0.2450 c         1 FLG      0.927200
      8 O4          4.8940   -1.4120   -0.6910 o         1 FLG     -0.785800
      9 O5          6.0660   -3.1580    0.0980 o         1 FLG     -0.785800
     10 C16         3.4930   -0.0270    3.4300 ca        1 FLG     -0.140000
     11 C15         4.7530   -0.5540    3.6900 ca        1 FLG     -0.104000
     12 C14         5.4190   -1.3660    2.7470 ca        1 FLG     -0.032000
     13 C10         6.8260   -1.7040    2.9970 cc        1 FLG      0.113000
     14 C9          7.7970   -0.7390    3.0370 cd        1 FLG     -0.202100
     15 C4          9.1740   -1.0840    3.3600 cd        1 FLG      0.329700
     16 O2          9.5270   -2.3940    3.6590 os        1 FLG     -0.385800
     17 C5         10.1820   -0.1740    3.4120 cc        1 FLG     -0.305200
     18 C8          7.5550    0.6630    2.7600 cd        1 FLG     -0.059200
     19 C7          8.5330    1.5860    2.8020 cc        1 FLG     -0.232200
     20 C6          9.9260    1.2370    3.1360 c         1 FLG      0.572500
     21 O3         10.8190    2.0980    3.1800 o         1 FLG     -0.552100
     22 C11         7.1970   -3.0730    3.2630 ca        1 FLG     -0.210300
     23 C3          8.5400   -3.3590    3.5850 ca        1 FLG      0.406000
     24 C2          8.9760   -4.6630    3.8690 ca        1 FLG     -0.318300
     25 C12         6.2900   -4.1500    3.1950 ca        1 FLG     -0.008000
     26 C13         6.6900   -5.4440    3.4680 ca        1 FLG     -0.182000
     27 C1          8.0370   -5.6950    3.8090 ca        1 FLG      0.184100
     28 O1          8.3630   -7.0000    4.0760 oh        1 FLG     -0.488100
     29 N2          2.9030    0.6240   -0.3970 n4        1 FLG     -0.650800
     30 C22         3.8340    1.7340   -0.0310 c3        1 FLG      0.122800
     31 C23         5.0460    1.7670   -0.9420 c3        1 FLG     -0.141100
     32 H18         2.7830   -1.9720    0.6940 ha        1 FLG      0.159000
     33 H16         3.0490    0.7110    4.1130 ha        1 FLG      0.147000
     34 H15         5.2720   -0.2760    4.6220 ha        1 FLG      0.154000
     35 H5         11.2120   -0.4670    3.6590 ha        1 FLG      0.168000
     36 H8          6.5200    0.9430    2.5030 ha        1 FLG      0.124000
     37 H7          8.3420    2.6480    2.5860 ha        1 FLG      0.145000
     38 H2         10.0290   -4.8480    4.1170 ha        1 FLG      0.159000
     39 H12         5.2500   -3.9490    2.8860 ha        1 FLG      0.154000
     40 H13         5.9850   -6.2860    3.4090 ha        1 FLG      0.159000
     41 H221        4.1620    1.5610    1.0350 hx        1 FLG      0.086700
     42 H222        3.2680    2.7060   -0.0860 hx        1 FLG      0.086700
     43 H231        5.7690    2.5150   -0.5350 hc        1 FLG      0.083700
     44 H232        5.5520    0.7640   -0.9860 hc        1 FLG      0.083700
     45 H233        4.7630    2.0700   -1.9790 hc        1 FLG      0.083700
     46 HN1         2.6060    0.7460   -1.3760 hn        1 FLG      0.498800
     47 HO1         9.3170   -7.0480    4.2400 ho        1 FLG      0.427000
     48 HN2         0.8560    0.3190    2.2720 hn        1 FLG      0.368500
     49 H22         3.4690   -0.2910   -0.3500 hn        1 FLG      0.498800
@<TRIPOS>BOND
     1    1    2 2
     2    2    3 1
     3    2   29 1
     4    3    4 1
     5    3   48 1
     6    4    5 ar
     7    4   10 ar
     8    5    6 ar
     9    5   32 1
    10    6    7 1
    11    6   12 ar
    12    7    8 1
    13    7    9 1
    14   10   11 ar
    15   10   33 1
    16   11   12 ar
    17   11   34 1
    18   12   13 1
    19   13   14 2
    20   13   22 1
    21   14   15 1
    22   14   18 1
    23   15   16 1
    24   15   17 2
    25   16   23 1
    26   17   20 1
    27   17   35 1
    28   18   19 2
    29   18   36 1
    30   19   20 1
    31   19   37 1
    32   20   21 2
    33   22   23 ar
    34   22   25 ar
    35   23   24 ar
    36   24   27 ar
    37   24   38 1
    38   25   26 ar
    39   25   39 1
    40   26   27 ar
    41   26   40 1
    42   27   28 1
    43   28   47 1
    44   29   30 1
    45   29   46 1
    46   29   49 1
    47   30   31 1
    48   30   41 1
    49   30   42 1
    50   31   43 1
    51   31   44 1
    52   31   45 1
@<TRIPOS>SUBSTRUCTURE
     1 FLG         1 TEMP              0 ****  ****    0 ROOT
