@<TRIPOS>MOLECULE
molecule
    4     3     1     0     0
SMALL
bcc


@<TRIPOS>ATOM
      1 C1           0.0000     0.0000     0.0000 c          1 FLH       0.565700
      2 O1           1.2250     0.0000     0.0000 o          1 FLH      -0.521100
      3 H11         -0.5420     0.0000     0.9380 h4         1 FLH      -0.022800
      4 H12         -0.5420    -0.0000    -0.9380 h4         1 FLH      -0.022800
@<TRIPOS>BOND
     1     1     2 2
     2     1     3 1
     3     1     4 1
@<TRIPOS>SUBSTRUCTURE
     1 FLH         1 TEMP              0 ****  ****    0 ROOT
