@<TRIPOS>MOLECULE
FLH
    4     3     1     0     0
SMALL
bcc


@<TRIPOS>ATOM
      1 C1          0.0250    0.0000    0.0000 c         1 FLH      0.562700
      2 O1          1.2520   -0.0000   -0.0000 o         1 FLH     -0.515100
      3 H11        -0.5680   -0.0000    0.9390 h4        1 FLH     -0.023800
      4 H12        -0.5680    0.0000   -0.9390 h4        1 FLH     -0.023800
@<TRIPOS>BOND
     1    1    2 2   
     2    1    3 1   
     3    1    4 1   
@<TRIPOS>SUBSTRUCTURE
     1 FLH         1 TEMP              0 ****  ****    0 ROOT
