@<TRIPOS>MOLECULE
FLJ
   51    55     1     0     0
SMALL
bcc


@<TRIPOS>ATOM
      1 N3           0.0000     0.0000     0.0000 nc         1 FLJ      -0.700000
      2 C4           1.3170     0.0000     0.0000 cd         1 FLJ       0.574200
      3 C5           2.0180     0.0000     1.2320 cd         1 FLJ      -0.422600
      4 C7           2.1950     0.0010     3.4280 cd         1 FLJ      -0.284300
      5 C8           3.4400     0.0010     2.8640 cc         1 FLJ       0.035600
      6 C10          1.8810     0.0010     4.8750 cd         1 FLJ      -0.228100
      7 N12          2.0900     0.0600     7.0560 na         1 FLJ       0.459400
      8 C17          1.8600     0.5320    -3.5470 ca         1 FLJ       0.060900
      9 C20         -0.5790    -0.7990    -3.6680 ca         1 FLJ      -0.030000
     10 C21          0.1020    -0.7240    -2.4730 ca         1 FLJ      -0.107000
     11 C24         -0.0810     2.0250    -6.5880 c3         1 FLJ      -0.013500
     12 C28         -1.6270     0.7760    -8.1410 c3         1 FLJ      -0.013500
     13 C1          -0.0750    -0.0010     2.3390 cd         1 FLJ      -0.490600
     14 C2          -0.6950    -0.0010     1.1430 cc         1 FLJ       0.445600
     15 N6           1.2950     0.0010     2.4000 na         1 FLJ       0.688700
     16 N9           3.3030     0.0010     1.5410 nc         1 FLJ      -0.221600
     17 C11          2.7830     0.0980     5.8970 cc         1 FLJ      -0.251300
     18 N13          0.7290    -0.0580     6.7490 nc         1 FLJ      -0.651800
     19 C14          0.5970    -0.0920     5.4500 cd         1 FLJ       0.382200
     20 N15          2.0160     0.0000    -1.1990 nu         1 FLJ      -0.251300
     21 C16          1.3250    -0.0640    -2.4070 ca         1 FLJ      -0.015400
     22 C18          1.1780     0.4700    -4.7430 ca         1 FLJ      -0.118000
     23 C19         -0.0480    -0.1970    -4.8120 ca         1 FLJ      -0.146600
     24 N23         -0.8260     0.7970    -6.9060 n          1 FLJ      -0.144800
     25 C25         -1.0430     3.2140    -6.6860 c3         1 FLJ       0.199400
     26 O26         -1.7020     3.1830    -7.9540 os         1 FLJ      -0.405600
     27 C27         -2.5140     2.0250    -8.1640 c3         1 FLJ       0.199400
     28 O29         -1.3300    -1.3090    -6.4150 o          1 FLJ      -0.643100
     29 C31         -2.2010     0.0010     1.0910 c3         1 FLJ      -0.035400
     30 H1           4.3790     0.0010     3.4040 h4         1 FLJ       0.142000
     31 H2           2.4820     0.1100     7.9760 hn         1 FLJ       0.149700
     32 H3          -1.5310    -1.3130    -3.7170 ha         1 FLJ       0.123000
     33 H4          -0.3110    -1.1880    -1.5850 ha         1 FLJ       0.155000
     34 H6           0.3140     1.9600    -5.5810 h1         1 FLJ       0.046200
     35 H7          -2.2480    -0.1120    -8.1550 h1         1 FLJ       0.046200
     36 H8          -0.9690     0.7810    -9.0010 h1         1 FLJ       0.046200
     37 H9          -0.6590    -0.0010     3.2520 h4         1 FLJ       0.161000
     38 H10          3.8580     0.1860     5.7960 h4         1 FLJ       0.151000
     39 H11         -0.3370    -0.1790     4.9090 h4         1 FLJ       0.008100
     40 H12          3.0170     0.0030    -1.1960 hn         1 FLJ       0.312800
     41 H13          1.5930     0.9350    -5.6290 ha         1 FLJ       0.138000
     42 H14         -1.7800     3.1490    -5.8950 h1         1 FLJ       0.015950
     43 H15         -0.4850     4.1380    -6.5920 h1         1 FLJ       0.015950
     44 H16         -3.0070     2.1000    -9.1260 h1         1 FLJ       0.015950
     45 H17         -3.2550     1.9570    -7.3760 h1         1 FLJ       0.015950
     46 H18         -2.5330     0.5920     0.2460 hc         1 FLJ       0.017367
     47 H19         -2.5940     0.4270     2.0060 hc         1 FLJ       0.017367
     48 H20         -2.5600    -1.0160     0.9830 hc         1 FLJ       0.017367
     49 F30          3.0460     1.1770    -3.4780 f          1 FLJ      -0.125900
     50 C22         -0.7750    -0.2760    -6.0930 c          1 FLJ       0.614700
     51 H5           0.7290     2.1530    -7.2960 h1         1 FLJ       0.046200
@<TRIPOS>BOND
     1     1     2 2   
     2     1    14 1   
     3     2     3 1   
     4     2    20 1   
     5     3    15 1   
     6     3    16 2   
     7     4     5 2   
     8     4     6 1   
     9     4    15 1   
    10     5    16 1   
    11     5    30 1   
    12     6    17 2   
    13     6    19 1   
    14     7    17 1   
    15     7    18 1   
    16     7    31 1   
    17     8    21 ar  
    18     8    22 ar  
    19     8    49 1   
    20     9    10 ar  
    21     9    23 ar  
    22     9    32 1   
    23    10    21 ar  
    24    10    33 1   
    25    11    24 1   
    26    11    25 1   
    27    11    34 1   
    28    11    51 1   
    29    12    24 1   
    30    12    27 1   
    31    12    35 1   
    32    12    36 1   
    33    13    14 2   
    34    13    15 1   
    35    13    37 1   
    36    14    29 1   
    37    17    38 1   
    38    18    19 2   
    39    19    39 1   
    40    20    21 1   
    41    20    40 1   
    42    22    23 ar  
    43    22    41 1   
    44    23    50 1   
    45    24    50 1   
    46    25    26 1   
    47    25    42 1   
    48    25    43 1   
    49    26    27 1   
    50    27    44 1   
    51    27    45 1   
    52    28    50 2   
    53    29    46 1   
    54    29    47 1   
    55    29    48 1   
@<TRIPOS>SUBSTRUCTURE
     1 FLJ         1 TEMP              0 ****  ****    0 ROOT
