@<TRIPOS>MOLECULE
molecule
   51    55     1     0     0
SMALL
bcc


@<TRIPOS>ATOM
      1 N3           0.0000     0.0000     0.0000 nc         1 FLJ      -0.775000
      2 C4           1.3170     0.0000     0.0000 cd         1 FLJ       0.755200
      3 C5           2.0180     0.0000     1.2320 cd         1 FLJ      -0.186600
      4 C7           2.1950     0.0010     3.4280 cd         1 FLJ      -0.069300
      5 C8           3.4400     0.0010     2.8640 cc         1 FLJ       0.023600
      6 C10          1.8810     0.0010     4.8750 cd         1 FLJ      -0.245100
      7 N12          2.0900     0.0600     7.0560 na         1 FLJ      -0.037600
      8 C17          1.8600     0.5320    -3.5470 ca         1 FLJ       0.082900
      9 C20         -0.5790    -0.7990    -3.6680 ca         1 FLJ      -0.071000
     10 C21          0.1020    -0.7240    -2.4730 ca         1 FLJ      -0.121000
     11 C24         -0.0810     2.0250    -6.5880 c3         1 FLJ       0.058500
     12 C28         -1.6270     0.7760    -8.1410 c3         1 FLJ       0.058500
     13 C1          -0.0750    -0.0010     2.3390 cd         1 FLJ      -0.263600
     14 C2          -0.6950    -0.0010     1.1430 cc         1 FLJ       0.435600
     15 N6           1.2950     0.0010     2.4000 na         1 FLJ       0.083700
     16 N9           3.3030     0.0010     1.5410 nc         1 FLJ      -0.292600
     17 C11          2.7830     0.0980     5.8970 cc         1 FLJ      -0.092300
     18 N13          0.7290    -0.0580     6.7490 nc         1 FLJ      -0.500800
     19 C14          0.5970    -0.0920     5.4500 cd         1 FLJ       0.338200
     20 N15          2.0160     0.0000    -1.1990 nu         1 FLJ      -0.740300
     21 C16          1.3250    -0.0640    -2.4070 ca         1 FLJ       0.142600
     22 C18          1.1780     0.4700    -4.7430 ca         1 FLJ      -0.139000
     23 C19         -0.0480    -0.1970    -4.8120 ca         1 FLJ      -0.142600
     24 N23         -0.8260     0.7970    -6.9060 n          1 FLJ      -0.489800
     25 C25         -1.0430     3.2140    -6.6860 c3         1 FLJ       0.120400
     26 O26         -1.7020     3.1830    -7.9540 os         1 FLJ      -0.420600
     27 C27         -2.5140     2.0250    -8.1640 c3         1 FLJ       0.120400
     28 O29         -1.3300    -1.3090    -6.4150 o          1 FLJ      -0.603100
     29 C31         -2.2010     0.0010     1.0910 c3         1 FLJ      -0.131400
     30 H1           4.3790     0.0010     3.4040 h4         1 FLJ       0.183000
     31 H2           2.4820     0.1100     7.9760 hn         1 FLJ       0.336700
     32 H3          -1.5310    -1.3130    -3.7170 ha         1 FLJ       0.156000
     33 H4          -0.3110    -1.1880    -1.5850 ha         1 FLJ       0.180000
     34 H6           0.3140     1.9600    -5.5810 h1         1 FLJ       0.069700
     35 H7          -2.2480    -0.1120    -8.1550 h1         1 FLJ       0.069700
     36 H8          -0.9690     0.7810    -9.0010 h1         1 FLJ       0.069700
     37 H9          -0.6590    -0.0010     3.2520 h4         1 FLJ       0.167000
     38 H10          3.8580     0.1860     5.7960 h4         1 FLJ       0.178000
     39 H11         -0.3370    -0.1790     4.9090 h4         1 FLJ       0.049100
     40 H12          3.0170     0.0030    -1.1960 hn         1 FLJ       0.484800
     41 H13          1.5930     0.9350    -5.6290 ha         1 FLJ       0.158000
     42 H14         -1.7800     3.1490    -5.8950 h1         1 FLJ       0.055700
     43 H15         -0.4850     4.1380    -6.5920 h1         1 FLJ       0.055700
     44 H16         -3.0070     2.1000    -9.1260 h1         1 FLJ       0.055700
     45 H17         -3.2550     1.9570    -7.3760 h1         1 FLJ       0.055700
     46 H18         -2.5330     0.5920     0.2460 hc         1 FLJ       0.055367
     47 H19         -2.5940     0.4270     2.0060 hc         1 FLJ       0.055367
     48 H20         -2.5600    -1.0160     0.9830 hc         1 FLJ       0.055367
     49 F30          3.0460     1.1770    -3.4780 f          1 FLJ      -0.140900
     50 C22         -0.7750    -0.2760    -6.0930 c          1 FLJ       0.681700
     51 H5           0.7290     2.1530    -7.2960 h1         1 FLJ       0.069700
@<TRIPOS>BOND
     1     7    18 1
     2     7    17 1
     3    18    19 2
     4    29    14 1
     5    17     6 2
     6    19     6 1
     7    13    14 2
     8    13    15 1
     9     6     4 1
    10    14     1 1
    11    15     4 1
    12    15     3 1
    13     4     5 2
    14     1     2 2
    15     3     2 1
    16     3    16 2
    17     5    16 1
    18     2    20 1
    19    10     9 ar
    20    10    21 ar
    21    20    21 1
    22     9    23 ar
    23    21     8 ar
    24    23    50 1
    25    23    22 ar
    26     8    22 ar
    27     8    49 1
    28    28    50 2
    29    50    24 1
    30    24    11 1
    31    24    12 1
    32    11    25 1
    33    12    27 1
    34    25    26 1
    35    27    26 1
    36     5    30 1
    37     7    31 1
    38     9    32 1
    39    10    33 1
    40    11    51 1
    41    11    34 1
    42    12    35 1
    43    12    36 1
    44    13    37 1
    45    17    38 1
    46    19    39 1
    47    20    40 1
    48    22    41 1
    49    25    42 1
    50    25    43 1
    51    27    44 1
    52    27    45 1
    53    29    46 1
    54    29    47 1
    55    29    48 1
@<TRIPOS>SUBSTRUCTURE
     1 FLJ         1 TEMP              0 ****  ****    0 ROOT
