@<TRIPOS>MOLECULE
FLK
   24    24     1     0     0
SMALL
bcc


@<TRIPOS>ATOM
      1 C4           0.0000     0.0000     0.0000 c3         1 FLK      -0.034200
      2 C5           1.5420     0.0000     0.0000 c3         1 FLK      -0.034200
      3 N1           0.7640    -0.0010     3.5160 nu         1 FLK       0.064300
      4 N2          -0.3470    -0.0020     1.4300 nu         1 FLK       0.048800
      5 N3           1.8840     0.0000     1.4310 nu         1 FLK       0.048800
      6 Cl          -3.0420    -0.0040     8.7190 cl         1 FLK      -0.097400
      7 C2          -1.4790    -0.0020     7.8190 c3         1 FLK       0.073000
      8 C1          -1.7580    -0.0030     6.3150 c3         1 FLK      -0.097400
      9 C           -0.4520    -0.0020     5.5620 c          1 FLK       0.595100
     10 O            0.5990    -0.0010     6.1700 o          1 FLK      -0.596100
     11 N           -0.4500    -0.0020     4.2150 ns         1 FLK      -0.236200
     12 C3           0.7650    -0.0010     2.1470 cz         1 FLK       0.028300
     13 H1          -0.3170     0.9550    -0.4010 h1         1 FLK       0.066200
     14 H2          -0.3170    -0.9540    -0.4040 h1         1 FLK       0.066200
     15 H3           1.8590    -0.9550    -0.4020 h1         1 FLK       0.066200
     16 H4           1.8590     0.9550    -0.4020 h1         1 FLK       0.066200
     17 H5          -1.2760    -0.0030     1.8020 hn         1 FLK       0.190200
     18 H7          -0.9130     0.8830     8.0810 h1         1 FLK       0.043700
     19 H8          -0.9100    -0.8860     8.0820 h1         1 FLK       0.043700
     20 H9          -2.3270     0.8810     6.0520 hc         1 FLK       0.047700
     21 H10         -2.3250    -0.8880     6.0530 hc         1 FLK       0.047700
     22 H11         -1.3160    -0.0130     3.7130 hn         1 FLK       0.205500
     23 H12          1.6300     0.0240     4.0170 hn         1 FLK       0.205700
     24 H6           2.8120    -0.0000     1.8060 hn         1 FLK       0.190200
@<TRIPOS>BOND
     1     1     2 1   
     2     1     4 1   
     3     1    13 1   
     4     1    14 1   
     5     2     5 1   
     6     2    15 1   
     7     2    16 1   
     8     3    11 1   
     9     3    12 2   
    10     3    23 1   
    11     4    12 1   
    12     4    17 1   
    13     5    12 1   
    14     5    24 1   
    15     6     7 1   
    16     7     8 1   
    17     7    18 1   
    18     7    19 1   
    19     8     9 1   
    20     8    20 1   
    21     8    21 1   
    22     9    10 2   
    23     9    11 1   
    24    11    22 1   
@<TRIPOS>SUBSTRUCTURE
     1 FLK         1 TEMP              0 ****  ****    0 ROOT
