@<TRIPOS>MOLECULE
molecule
   17    17     1     0     0
SMALL
bcc


@<TRIPOS>ATOM
      1 C1           0.0000     0.0000     0.0000 ca         1 FLM      -0.149300
      2 C2           1.3890     0.0000     0.0000 ca         1 FLM       0.195600
      3 C3          -0.6890     0.0040     1.1970 ca         1 FLM       0.144900
      4 C4          -0.7530     0.0000    -1.3060 c3         1 FLM      -0.037800
      5 C5           2.0800     0.0000     1.2050 ca         1 FLM      -0.175000
      6 N6           2.0890    -0.0000    -1.2080 nv         1 FLM      -0.969200
      7 C7           0.0040    -0.0000     2.3960 ca         1 FLM      -0.184000
      8 F8          -2.0400     0.0040     1.1990 f          1 FLM      -0.142900
      9 C9           1.3850     0.0010     2.3980 ca         1 FLM      -0.095000
     10 HC41        -1.8170     0.0530    -1.1090 hc         1 FLM       0.046033
     11 HC42        -0.5320    -0.9100    -1.8510 hc         1 FLM       0.046033
     12 HC43        -0.4520     0.8570    -1.8970 hc         1 FLM       0.046033
     13 HC5          3.1630     0.0000     1.2080 ha         1 FLM       0.136000
     14 HN61         2.7120     0.7530    -1.4240 hn         1 FLM       0.430300
     15 HN62         2.0230    -0.7860    -1.8240 hn         1 FLM       0.430300
     16 HC7         -0.5380     0.0020     3.3340 ha         1 FLM       0.143000
     17 HC9          1.9250    -0.0010     3.3380 ha         1 FLM       0.134000
@<TRIPOS>BOND
     1     1     2 ar
     2     1     3 ar
     3     1     4 1
     4     2     5 ar
     5     2     6 1
     6     3     7 ar
     7     3     8 1
     8     4    10 1
     9     4    11 1
    10     4    12 1
    11     5     9 ar
    12     5    13 1
    13     6    14 1
    14     6    15 1
    15     7     9 ar
    16     7    16 1
    17     9    17 1
@<TRIPOS>SUBSTRUCTURE
     1 FLM         1 TEMP              0 ****  ****    0 ROOT
