@<TRIPOS>MOLECULE
FLP
   30    31     1     0     0
SMALL
bcc


@<TRIPOS>ATOM
      1 C          -0.0740   -0.2810    0.0980 ca        1 FLP     -0.137000
      2 C1          1.3160   -0.3570    0.0840 ca        1 FLP     -0.123000
      3 C2          2.0590   -0.0310    1.2290 cp        1 FLP      0.001000
      4 C3          1.3750    0.3680    2.3880 ca        1 FLP     -0.123000
      5 C4         -0.0160    0.4430    2.3970 ca        1 FLP     -0.137000
      6 C5         -0.7450    0.1210    1.2530 ca        1 FLP     -0.147000
      7 C6          3.5180   -0.0780    1.2210 cp        1 FLP     -0.123000
      8 C7          4.2450    0.9580    1.8270 ca        1 FLP     -0.108000
      9 C8          5.6340    0.9610    1.8300 ca        1 FLP     -0.165000
     10 C9          6.3550   -0.0810    1.2280 ca        1 FLP      0.021700
     11 C10         5.6520   -1.1370    0.6380 ca        1 FLP     -0.156000
     12 C11         4.2470   -1.1360    0.6280 ca        1 FLP      0.126900
     13 C12         7.8430   -0.0630    1.2110 c3        1 FLP     -0.175400
     14 C13         8.3660    0.2080   -0.1830 c3        1 FLP     -0.062100
     15 C14         8.4420   -1.4150    1.7180 c         1 FLP      0.924600
     16 O           8.2570   -2.4490    1.0180 o         1 FLP     -0.829800
     17 O1          9.1000   -1.3760    2.7920 o         1 FLP     -0.829800
     18 F           3.5980   -2.1760    0.0430 f         1 FLP     -0.156900
     19 H          -0.6440   -0.5410   -0.8050 ha        1 FLP      0.119500
     20 H1          1.8440   -0.6860   -0.8250 ha        1 FLP      0.138500
     21 H3          1.9460    0.6140    3.2960 ha        1 FLP      0.138500
     22 H4         -0.5400    0.7530    3.3130 ha        1 FLP      0.119500
     23 H5         -1.8420    0.1800    1.2620 ha        1 FLP      0.117000
     24 H7          3.6970    1.7860    2.3000 ha        1 FLP      0.117000
     25 H8          6.1770    1.7860    2.3140 ha        1 FLP      0.128000
     26 H10         6.2240   -1.9880    0.2200 ha        1 FLP      0.203000
     27 H12         8.2100    0.7420    1.9060 hc        1 FLP      0.047700
     28 H131        7.9430    1.1540   -0.5980 hc        1 FLP      0.022700
     29 H132        9.4790    0.2950   -0.1530 hc        1 FLP      0.022700
     30 H133        8.0960   -0.6410   -0.8590 hc        1 FLP      0.022700
@<TRIPOS>BOND
     1    1    2 ar  
     2    1    6 ar  
     3    1   19 1   
     4    2    3 ar  
     5    2   20 1   
     6    3    4 ar  
     7    3    7 1   
     8    4    5 ar  
     9    4   21 1   
    10    5    6 ar  
    11    5   22 1   
    12    6   23 1   
    13    7    8 ar  
    14    7   12 ar  
    15    8    9 ar  
    16    8   24 1   
    17    9   10 ar  
    18    9   25 1   
    19   10   11 ar  
    20   10   13 1   
    21   11   12 ar  
    22   11   26 1   
    23   12   18 1   
    24   13   14 1   
    25   13   15 1   
    26   13   27 1   
    27   14   28 1   
    28   14   29 1   
    29   14   30 1   
    30   15   16 1   
    31   15   17 1   
@<TRIPOS>SUBSTRUCTURE
     1 FLP         1 TEMP              0 ****  ****    0 ROOT
