@<TRIPOS>MOLECULE
molecule
   30    31     1     0     0
SMALL
bcc


@<TRIPOS>ATOM
      1 C            0.0000     0.0000     0.0000 ca         1 FLP      -0.136500
      2 C1           1.3800     0.0000     0.0000 ca         1 FLP      -0.114000
      3 C2           2.0750     0.0000     1.2070 cp         1 FLP      -0.006000
      4 C3           1.3700    -0.0020     2.4090 ca         1 FLP      -0.114000
      5 C4          -0.0090     0.0050     2.3980 ca         1 FLP      -0.136500
      6 C5          -0.6940     0.0040     1.1950 ca         1 FLP      -0.144000
      7 C6           3.5580    -0.0000     1.2130 cp         1 FLP      -0.124000
      8 C7           4.2560     1.0430     1.8170 ca         1 FLP      -0.104000
      9 C8           5.6360     1.0370     1.8210 ca         1 FLP      -0.156000
     10 C9           6.3270    -0.0030     1.2260 ca         1 FLP       0.017700
     11 C10          5.6420    -1.0390     0.6200 ca         1 FLP      -0.123000
     12 C11          4.2600    -1.0460     0.6150 ca         1 FLP       0.131900
     13 C12          7.8340    -0.0040     1.2330 c3         1 FLP      -0.145400
     14 C13          8.3520    -0.0060    -0.2070 c3         1 FLP      -0.060100
     15 C14          8.3330    -1.2310     1.9480 c          1 FLP       0.894600
     16 O            7.5460    -2.0260     2.4050 o          1 FLP      -0.838300
     17 O1           9.6530    -1.4440     2.0770 o          1 FLP      -0.838300
     18 F            3.5910    -2.0620     0.0270 f          1 FLP      -0.154900
     19 H           -0.5400    -0.0010    -0.9390 ha         1 FLP       0.118500
     20 H1           1.9230    -0.0000    -0.9380 ha         1 FLP       0.137000
     21 H3           1.9050    -0.0020     3.3510 ha         1 FLP       0.137000
     22 H4          -0.5570     0.0060     3.3320 ha         1 FLP       0.118500
     23 H5          -1.7770     0.0060     1.1910 ha         1 FLP       0.115000
     24 H7           3.7160     1.8590     2.2830 ha         1 FLP       0.119000
     25 H8           6.1790     1.8470     2.2920 ha         1 FLP       0.126000
     26 H10          6.1890    -1.8500     0.1560 ha         1 FLP       0.163000
     27 H12          8.1930     0.8820     1.7440 hc         1 FLP       0.048700
     28 H131         8.3280    -1.0160    -0.5970 hc         1 FLP       0.024033
     29 H132         9.3690     0.3650    -0.2250 hc         1 FLP       0.024033
     30 H133         7.7240     0.6320    -0.8170 hc         1 FLP       0.024033
@<TRIPOS>BOND
     1     1     2 ar
     2     1     6 ar
     3     1    19 1
     4     2     3 ar
     5     2    20 1
     6     3     4 ar
     7     3     7 1
     8     4     5 ar
     9     4    21 1
    10     5     6 ar
    11     5    22 1
    12     6    23 1
    13     7     8 ar
    14     7    12 ar
    15     8     9 ar
    16     8    24 1
    17     9    10 ar
    18     9    25 1
    19    10    11 ar
    20    10    13 1
    21    11    12 ar
    22    11    26 1
    23    12    18 1
    24    13    14 1
    25    13    15 1
    26    13    27 1
    27    14    28 1
    28    14    29 1
    29    14    30 1
    30    15    16 1
    31    15    17 1
@<TRIPOS>SUBSTRUCTURE
     1 FLP         1 TEMP              0 ****  ****    0 ROOT
