@<TRIPOS>MOLECULE
FLQ
   66    70     1     0     0
SMALL
bcc


@<TRIPOS>ATOM
      1 C1           0.0000     0.0000     0.0000 ca         1 FLQ       0.163600
      2 O1          -0.6820     0.0020    -1.1780 oh         1 FLQ      -0.503600
      3 C2           1.3930     0.0000     0.0000 ca         1 FLQ      -0.179000
      4 C3           2.0960     0.0000     1.2100 ca         1 FLQ       0.173100
      5 O2           3.4650     0.0070     1.1030 os         1 FLQ      -0.198200
      6 C4           4.2100     0.2230     2.2370 ca         1 FLQ       0.173100
      7 C5           5.5760     0.4410     2.0330 ca         1 FLQ      -0.179000
      8 C6           6.4180     0.6780     3.1170 ca         1 FLQ       0.163600
      9 O3           7.7450     0.8930     2.9170 oh         1 FLQ      -0.503600
     10 C7           5.8950     0.6920     4.4070 ca         1 FLQ      -0.167000
     11 C8           4.5330     0.4650     4.6120 ca         1 FLQ      -0.007500
     12 C9           3.6700     0.2270     3.5280 ca         1 FLQ      -0.180800
     13 C10          2.1940    -0.0560     3.7330 c3         1 FLQ       0.389700
     14 C11          1.4150    -0.0120     2.4330 ca         1 FLQ      -0.180800
     15 C12          0.0090    -0.0110     2.4140 ca         1 FLQ      -0.007500
     16 C13         -0.6920    -0.0040     1.2060 ca         1 FLQ      -0.167000
     17 C16          2.5280    -6.6360    -0.1450 c3         1 FLQ      -0.018400
     18 C17          3.2580    -6.1530     1.1110 c3         1 FLQ      -0.038400
     19 C18          2.9480    -7.0540     2.3110 c3         1 FLQ      -0.049400
     20 C19          3.6500    -6.5940     3.5850 c3         1 FLQ       0.054000
     21 O4           1.4740    -5.9120     5.3280 o          1 FLQ      -0.633100
     22 N1           3.2530    -5.2650     3.9890 ns         1 FLQ      -0.208900
     23 C1'          1.8860    -3.6110     5.1390 ca         1 FLQ      -0.135600
     24 C2'          1.2610    -3.2720     6.3510 ca         1 FLQ      -0.047000
     25 C3'          0.9740    -1.9400     6.6520 ca         1 FLQ      -0.031000
     26 C4'          1.3280    -0.9850     5.7160 ca         1 FLQ      -0.201600
     27 C5'          1.9430    -1.3020     4.5190 ca         1 FLQ      -0.110300
     28 C6'          2.2320    -2.6230     4.2130 ca         1 FLQ      -0.024000
     29 O8'          1.6530     0.9680     4.6250 os         1 FLQ      -0.406900
     30 C9'          1.1400     0.4560     5.7900 c          1 FLQ       0.819200
     31 O9'          0.6320     1.0780     6.7000 o          1 FLQ      -0.598500
     32 C20          2.7960    -5.7650    -1.3780 c3         1 FLQ      -0.040400
     33 C21          2.3280    -4.3180    -1.2580 c3         1 FLQ       0.035000
     34 N2           0.9070    -4.2100    -1.0700 ns         1 FLQ      -0.209900
     35 C22          0.3250    -3.6180     0.0400 c          1 FLQ       0.599100
     36 O5           0.9210    -3.1190     0.9880 o          1 FLQ      -0.644100
     37 C23         -1.1670    -3.6150     0.0240 c3         1 FLQ      -0.093100
     38 HO1         -0.7570     0.8860    -1.4960 ho         1 FLQ       0.407500
     39 H2           1.9340     0.0210    -0.9390 ha         1 FLQ       0.127500
     40 H5           5.9820     0.4250     1.0280 ha         1 FLQ       0.127500
     41 HO3          7.8960     1.8130     2.7730 ho         1 FLQ       0.407500
     42 H7           6.5460     0.8750     5.2540 ha         1 FLQ       0.119000
     43 H8           4.1350     0.4780     5.6190 ha         1 FLQ       0.110000
     44 H12         -0.5380    -0.0140     3.3490 ha         1 FLQ       0.110000
     45 H13         -1.7740     0.0290     1.2090 ha         1 FLQ       0.119000
     46 H161         2.8430    -7.6490    -0.3610 hc         1 FLQ       0.013200
     47 H162         1.4630    -6.6370     0.0530 hc         1 FLQ       0.013200
     48 H171         2.9460    -5.1400     1.3370 hc         1 FLQ       0.018700
     49 H172         4.3260    -6.1620     0.9270 hc         1 FLQ       0.018700
     50 H181         1.8780    -7.0530     2.4820 hc         1 FLQ       0.024700
     51 H182         3.2650    -8.0640     2.0820 hc         1 FLQ       0.024700
     52 H191         3.4160    -7.2870     4.3830 h1         1 FLQ       0.024700
     53 H192         4.7210    -6.6030     3.4170 h1         1 FLQ       0.024700
     54 HN1          3.7770    -4.4870     3.6390 hn         1 FLQ       0.177500
     55 H2'          0.9980    -4.0500     7.0570 ha         1 FLQ       0.128000
     56 H3'          0.4920    -1.6640     7.5820 ha         1 FLQ       0.126000
     57 H6'          2.9100    -2.8550     3.4010 ha         1 FLQ       0.122000
     58 H201         3.8630    -5.7640    -1.5690 hc         1 FLQ       0.014700
     59 H202         2.2970    -6.2150    -2.2280 hc         1 FLQ       0.014700
     60 H211         2.8280    -3.8580    -0.4140 h1         1 FLQ       0.028200
     61 H212         2.6030    -3.7850    -2.1600 h1         1 FLQ       0.028200
     62 HN2          0.3060    -4.5810    -1.7790 hn         1 FLQ       0.173500
     63 H231        -1.5280    -4.6250    -0.1270 hc         1 FLQ       0.028700
     64 H232        -1.5180    -2.9810    -0.7820 hc         1 FLQ       0.028700
     65 H233        -1.5380    -3.2360     0.9690 hc         1 FLQ       0.028700
     66 C14          2.1760    -5.0060     4.8460 c          1 FLQ       0.605700
@<TRIPOS>BOND
     1     1     2 1   
     2     1     3 ar  
     3     1    16 ar  
     4     2    38 1   
     5     3     4 ar  
     6     3    39 1   
     7     4     5 1   
     8     4    14 ar  
     9     5     6 1   
    10     6     7 ar  
    11     6    12 ar  
    12     7     8 ar  
    13     7    40 1   
    14     8     9 1   
    15     8    10 ar  
    16     9    41 1   
    17    10    11 ar  
    18    10    42 1   
    19    11    12 ar  
    20    11    43 1   
    21    12    13 1   
    22    13    14 1   
    23    13    27 1   
    24    13    29 1   
    25    14    15 ar  
    26    15    16 ar  
    27    15    44 1   
    28    16    45 1   
    29    17    18 1   
    30    17    32 1   
    31    17    46 1   
    32    17    47 1   
    33    18    19 1   
    34    18    48 1   
    35    18    49 1   
    36    19    20 1   
    37    19    50 1   
    38    19    51 1   
    39    20    22 1   
    40    20    52 1   
    41    20    53 1   
    42    21    66 2   
    43    22    54 1   
    44    22    66 1   
    45    23    24 ar  
    46    23    28 ar  
    47    23    66 1   
    48    24    25 ar  
    49    24    55 1   
    50    25    26 ar  
    51    25    56 1   
    52    26    27 ar  
    53    26    30 1   
    54    27    28 ar  
    55    28    57 1   
    56    29    30 1   
    57    30    31 2   
    58    32    33 1   
    59    32    58 1   
    60    32    59 1   
    61    33    34 1   
    62    33    60 1   
    63    33    61 1   
    64    34    35 1   
    65    34    62 1   
    66    35    36 2   
    67    35    37 1   
    68    37    63 1   
    69    37    64 1   
    70    37    65 1   
@<TRIPOS>SUBSTRUCTURE
     1 FLQ         1 TEMP              0 ****  ****    0 ROOT
