@<TRIPOS>MOLECULE
molecule
   30    31     1     0     0
SMALL
bcc


@<TRIPOS>ATOM
      1 C1           0.0000     0.0000     0.0000 ca         1 FLR      -0.116000
      2 C            1.3790     0.0000     0.0000 ca         1 FLR      -0.136000
      3 C5           2.0750     0.0000     1.1960 ca         1 FLR      -0.145000
      4 C4           1.3910    -0.0010     2.3980 ca         1 FLR      -0.136000
      5 C3           0.0100    -0.0020     2.4110 ca         1 FLR      -0.116000
      6 C2          -0.6940    -0.0020     1.2090 cp         1 FLR      -0.007000
      7 C6          -2.1780    -0.0030     1.2150 cp         1 FLR      -0.123000
      8 C11         -2.8740    -0.9280     1.9940 ca         1 FLR       0.129900
      9 C10         -4.2570    -0.9230     1.9960 ca         1 FLR      -0.121000
     10 F           -2.1990    -1.8270     2.7430 f          1 FLR      -0.155900
     11 C7          -2.8820     0.9240     0.4490 ca         1 FLR      -0.104000
     12 C8          -4.2610     0.9190     0.4580 ca         1 FLR      -0.156000
     13 C9          -4.9480    -0.0040     1.2280 ca         1 FLR       0.017700
     14 C12         -6.4540    -0.0040     1.2330 c3         1 FLR      -0.147400
     15 C13         -6.9670    -1.3570     0.7340 c3         1 FLR      -0.060100
     16 C14         -6.9530     0.2350     2.6350 c          1 FLR       0.895600
     17 O1          -6.1640     0.3900     3.5370 o          1 FLR      -0.838300
     18 O           -8.2710     0.2770     2.8810 o          1 FLR      -0.838300
     19 H1          -0.5420    -0.0700    -0.9360 ha         1 FLR       0.138500
     20 H2           1.9200    -0.0010    -0.9390 ha         1 FLR       0.119000
     21 H3           3.1580     0.0010     1.1900 ha         1 FLR       0.115000
     22 H4           1.9400     0.0000     3.3320 ha         1 FLR       0.119000
     23 H5          -0.5230     0.0710     3.3510 ha         1 FLR       0.138500
     24 H6          -4.8000    -1.6520     2.5860 ha         1 FLR       0.162000
     25 H7          -2.3460     1.6640    -0.1330 ha         1 FLR       0.119000
     26 H8          -4.8080     1.6370    -0.1400 ha         1 FLR       0.126000
     27 H9          -6.8180     0.7820     0.5820 hc         1 FLR       0.049700
     28 H10         -7.0440    -2.0430     1.5680 hc         1 FLR       0.023700
     29 H11         -7.9420    -1.2280     0.2810 hc         1 FLR       0.023700
     30 H12         -6.2770    -1.7560     0.0000 hc         1 FLR       0.023700
@<TRIPOS>BOND
     1    17    16 1
     2    12    11 ar
     3    12    13 ar
     4    16    18 1
     5    16    14 1
     6    11     7 ar
     7    15    14 1
     8     1     2 ar
     9     1     6 ar
    10     2     3 ar
    11    14    13 1
    12    13     9 ar
    13     7     6 1
    14     7     8 ar
    15     6     5 ar
    16     3     4 ar
    17     9     8 ar
    18     5     4 ar
    19     8    10 1
    20     1    19 1
    21     2    20 1
    22     3    21 1
    23     4    22 1
    24     5    23 1
    25     9    24 1
    26    11    25 1
    27    12    26 1
    28    14    27 1
    29    15    28 1
    30    15    29 1
    31    15    30 1
@<TRIPOS>SUBSTRUCTURE
     1 FLR         1 TEMP              0 ****  ****    0 ROOT
