@<TRIPOS>MOLECULE
FLR
   30    31     1     0     0
SMALL
bcc


@<TRIPOS>ATOM
      1 C1         -0.0050    0.0240    0.0010 ca        1 FLR     -0.122500
      2 C           1.3850    0.0860   -0.0440 ca        1 FLR     -0.137000
      3 C5          2.1240    0.1430    1.1370 ca        1 FLR     -0.147000
      4 C4          1.4640    0.1340    2.3650 ca        1 FLR     -0.137000
      5 C3          0.0730    0.0700    2.4150 ca        1 FLR     -0.122500
      6 C2         -0.6800    0.0150    1.2320 cp        1 FLR      0.001000
      7 C6         -2.1390   -0.0250    1.2660 cp        1 FLR     -0.123000
      8 C11        -2.8610   -0.8330    2.1760 ca        1 FLR      0.126900
      9 C10        -4.2650   -0.8450    2.1710 ca        1 FLR     -0.155000
     10 F          -2.2060   -1.6240    3.0650 f         1 FLR     -0.156900
     11 C7         -2.8720    0.7690    0.3720 ca        1 FLR     -0.108000
     12 C8         -4.2610    0.7590    0.3680 ca        1 FLR     -0.165000
     13 C9         -4.9750   -0.0550    1.2600 ca        1 FLR      0.021700
     14 C12        -6.4630   -0.0820    1.2380 c3        1 FLR     -0.175400
     15 C13        -6.9730   -1.3960    0.6870 c3        1 FLR     -0.062100
     16 C14        -7.0640    0.1320    2.6650 c         1 FLR      0.923600
     17 O1         -6.8670   -0.7610    3.5350 o         1 FLR     -0.830300
     18 O          -7.7360    1.1820    2.8460 o         1 FLR     -0.830300
     19 H1         -0.5850   -0.0260   -0.9330 ha        1 FLR      0.139500
     20 H2          1.9010    0.0890   -1.0150 ha        1 FLR      0.120000
     21 H3          3.2210    0.1930    1.1000 ha        1 FLR      0.117000
     22 H4          2.0410    0.1760    3.3000 ha        1 FLR      0.120000
     23 H5         -0.4470    0.0550    3.3860 ha        1 FLR      0.139500
     24 H6         -4.8330   -1.4420    2.9110 ha        1 FLR      0.202000
     25 H7         -2.3290    1.4180   -0.3310 ha        1 FLR      0.117000
     26 H8         -4.8090    1.4020   -0.3360 ha        1 FLR      0.128000
     27 H9         -6.8380    0.7600    0.5920 hc        1 FLR      0.047700
     28 H10        -6.6960   -2.2280    1.3790 hc        1 FLR      0.022700
     29 H11        -8.0860   -1.3600    0.6080 hc        1 FLR      0.022700
     30 H12        -6.5480   -1.6040   -0.3240 hc        1 FLR      0.022700
@<TRIPOS>BOND
     1    1    2 ar  
     2    1    6 ar  
     3    1   19 1   
     4    2    3 ar  
     5    2   20 1   
     6    3    4 ar  
     7    3   21 1   
     8    4    5 ar  
     9    4   22 1   
    10    5    6 ar  
    11    5   23 1   
    12    6    7 1   
    13    7    8 ar  
    14    7   11 ar  
    15    8    9 ar  
    16    8   10 1   
    17    9   13 ar  
    18    9   24 1   
    19   11   12 ar  
    20   11   25 1   
    21   12   13 ar  
    22   12   26 1   
    23   13   14 1   
    24   14   15 1   
    25   14   16 1   
    26   14   27 1   
    27   15   28 1   
    28   15   29 1   
    29   15   30 1   
    30   16   17 1   
    31   16   18 1   
@<TRIPOS>SUBSTRUCTURE
     1 FLR         1 TEMP              0 ****  ****    0 ROOT
