@<TRIPOS>MOLECULE
molecule
   47    49     1     0     0
SMALL
bcc


@<TRIPOS>ATOM
      1 C1           1.5300     0.0000     0.0000 c3         1 FLS       0.270500
      2 C2           0.0000     0.0000     0.0000 c3         1 FLS      -0.103100
      3 C3           2.0400     0.0000     1.4420 c3         1 FLS      -0.229600
      4 C7           3.3260     3.4640    -5.9680 c          1 FLS       0.684700
      5 C8           3.0070     2.3400    -6.7660 cc         1 FLS      -0.038100
      6 S4           3.8540     0.0010     1.4420 s6         1 FLS       1.104000
      7 O28          4.3060     1.2270     0.8840 o          1 FLS      -0.605300
      8 N17          2.0180     1.1970    -0.6900 nu         1 FLS      -0.894900
      9 C14          2.1500     1.1950    -2.0660 ca         1 FLS       0.992900
     10 N15          2.5920     2.2900    -2.6640 nb         1 FLS      -0.832000
     11 C10          2.7320     2.3250    -3.9840 ca         1 FLS       0.641200
     12 N6           3.1890     3.4440    -4.6310 n          1 FLS      -0.408300
     13 C20          3.5330     4.6370    -3.8520 c3         1 FLS       0.084300
     14 N13          1.8260     0.0960    -2.7380 nb         1 FLS      -0.820000
     15 C12          1.9340     0.0410    -4.0540 ca         1 FLS       0.559200
     16 C11          2.3990     1.1730    -4.7310 ca         1 FLS      -0.434400
     17 C9           2.5480     1.1980    -6.1840 cd         1 FLS      -0.013200
     18 O18          3.1590     2.4000    -8.1160 os         1 FLS      -0.202200
     19 C19          2.3430     3.2350    -8.8140 ca         1 FLS       0.092100
     20 C25          2.5360     3.4160   -10.1780 ca         1 FLS       0.142900
     21 F26          3.5330     2.7620   -10.8130 f          1 FLS      -0.123900
     22 C24          1.7050     4.2650   -10.8850 ca         1 FLS      -0.180000
     23 C23          0.6840     4.9360   -10.2340 ca         1 FLS       0.125900
     24 F27         -0.1270     5.7660   -10.9260 f          1 FLS      -0.136900
     25 C22          0.4920     4.7560    -8.8740 ca         1 FLS      -0.146000
     26 C21          1.3150     3.9030    -8.1660 ca         1 FLS      -0.147000
     27 H1           1.8910    -0.8840    -0.5110 h1         1 FLS       0.099700
     28 H2          -0.3610     0.9750     0.3040 hc         1 FLS       0.047700
     29 H2A         -0.3610    -0.7510     0.6920 hc         1 FLS       0.047700
     30 H2B         -0.3610    -0.2240    -0.9960 hc         1 FLS       0.047700
     31 H3           1.6780     0.8840     1.9530 h1         1 FLS       0.102700
     32 H3A          1.6790    -0.8850     1.9530 h1         1 FLS       0.102700
     33 H5           3.7950    -0.8790     3.6780 h1         1 FLS       0.098033
     34 H5A          5.3030    -0.0100     3.3600 h1         1 FLS       0.098033
     35 H5B          3.8130     0.8900     3.6750 h1         1 FLS       0.098033
     36 HN17         2.2120     2.0300    -0.1700 hn         1 FLS       0.472800
     37 H20          2.6480     5.0080    -3.3500 h1         1 FLS       0.065033
     38 H20A         4.2860     4.3830    -3.1160 h1         1 FLS       0.065033
     39 H20B         3.9200     5.4020    -4.5150 h1         1 FLS       0.065033
     40 H12          1.6690    -0.8590    -4.5950 h4         1 FLS       0.039100
     41 H9           2.3000     0.3300    -6.7820 ha         1 FLS       0.157000
     42 H24          1.8540     4.4070   -11.9490 ha         1 FLS       0.164000
     43 H22         -0.3100     5.2800    -8.3670 ha         1 FLS       0.150000
     44 H21          1.1640     3.7630    -7.1020 ha         1 FLS       0.148000
     45 O16          3.7400     4.4760    -6.5080 o          1 FLS      -0.615500
     46 C5           4.2290     0.0000     3.2170 c3         1 FLS      -0.229300
     47 O29          4.3070    -1.2250     0.8830 o          1 FLS      -0.605300
@<TRIPOS>BOND
     1     1     2 1
     2     1     3 1
     3     1     8 1
     4     3     6 1
     5    46     6 1
     6     4     5 1
     7     4    12 1
     8     4    45 2
     9     5    17 2
    10     5    18 1
    11    47     6 2
    12     6     7 2
    13     8     9 1
    14     9    10 ar
    15     9    14 ar
    16    10    11 ar
    17    11    12 1
    18    11    16 ar
    19    12    13 1
    20    14    15 ar
    21    15    16 ar
    22    16    17 1
    23    18    19 1
    24    19    20 ar
    25    19    26 ar
    26    20    21 1
    27    20    22 ar
    28    22    23 ar
    29    23    24 1
    30    23    25 ar
    31    25    26 ar
    32     1    27 1
    33     2    28 1
    34     2    29 1
    35     2    30 1
    36     3    31 1
    37     3    32 1
    38    46    33 1
    39    46    34 1
    40    46    35 1
    41     8    36 1
    42    13    37 1
    43    13    38 1
    44    13    39 1
    45    15    40 1
    46    17    41 1
    47    22    42 1
    48    25    43 1
    49    26    44 1
@<TRIPOS>SUBSTRUCTURE
     1 FLS         1 TEMP              0 ****  ****    0 ROOT
