@<TRIPOS>MOLECULE
FLS
   47    49     1     0     0
SMALL
bcc


@<TRIPOS>ATOM
      1 C1           1.5300     0.0000     0.0000 c3         1 FLS       0.165500
      2 C2           0.0000     0.0000     0.0000 c3         1 FLS      -0.017100
      3 C3           2.0400     0.0000     1.4420 c3         1 FLS      -0.034600
      4 C7           3.3260     3.4640    -5.9680 c          1 FLS       0.588700
      5 C8           3.0070     2.3400    -6.7660 cc         1 FLS      -0.045100
      6 S4           3.8540     0.0010     1.4420 s6         1 FLS       0.793000
      7 O28          4.3060     1.2270     0.8840 o          1 FLS      -0.580300
      8 N17          2.0180     1.1970    -0.6900 nu         1 FLS      -0.476900
      9 C14          2.1500     1.1950    -2.0660 ca         1 FLS       0.771900
     10 N15          2.5920     2.2900    -2.6640 nb         1 FLS      -0.725000
     11 C10          2.7320     2.3250    -3.9840 ca         1 FLS       0.450200
     12 N6           3.1890     3.4440    -4.6310 n          1 FLS       0.014700
     13 C20          3.5330     4.6370    -3.8520 c3         1 FLS       0.039300
     14 N13          1.8260     0.0960    -2.7380 nb         1 FLS      -0.723000
     15 C12          1.9340     0.0410    -4.0540 ca         1 FLS       0.558200
     16 C11          2.3990     1.1730    -4.7310 ca         1 FLS      -0.439400
     17 C9           2.5480     1.1980    -6.1840 cd         1 FLS       0.019800
     18 O18          3.1590     2.4000    -8.1160 os         1 FLS      -0.173200
     19 C19          2.3430     3.2350    -8.8140 ca         1 FLS       0.116100
     20 C25          2.5360     3.4160   -10.1780 ca         1 FLS       0.104900
     21 F26          3.5330     2.7620   -10.8130 f          1 FLS      -0.116900
     22 C24          1.7050     4.2650   -10.8850 ca         1 FLS      -0.135000
     23 C23          0.6840     4.9360   -10.2340 ca         1 FLS       0.091900
     24 F27         -0.1270     5.7660   -10.9260 f          1 FLS      -0.125900
     25 C22          0.4920     4.7560    -8.8740 ca         1 FLS      -0.103000
     26 C21          1.3150     3.9030    -8.1660 ca         1 FLS      -0.137000
     27 H1           1.8910    -0.8840    -0.5110 h1         1 FLS       0.074700
     28 H2          -0.3610     0.9750     0.3040 hc         1 FLS       0.013700
     29 H2A         -0.3610    -0.7510     0.6920 hc         1 FLS       0.013700
     30 H2B         -0.3610    -0.2240    -0.9960 hc         1 FLS       0.013700
     31 H3           1.6780     0.8840     1.9530 h1         1 FLS       0.071200
     32 H3A          1.6790    -0.8850     1.9530 h1         1 FLS       0.071200
     33 H5           3.7950    -0.8790     3.6780 h1         1 FLS       0.061700
     34 H5A          5.3030    -0.0100     3.3600 h1         1 FLS       0.061700
     35 H5B          3.8130     0.8900     3.6750 h1         1 FLS       0.061700
     36 HN17         2.2120     2.0300    -0.1700 hn         1 FLS       0.321800
     37 H20          2.6480     5.0080    -3.3500 h1         1 FLS       0.034367
     38 H20A         4.2860     4.3830    -3.1160 h1         1 FLS       0.034367
     39 H20B         3.9200     5.4020    -4.5150 h1         1 FLS       0.034367
     40 H12          1.6690    -0.8590    -4.5950 h4         1 FLS      -0.013900
     41 H9           2.3000     0.3300    -6.7820 ha         1 FLS       0.122000
     42 H24          1.8540     4.4070   -11.9490 ha         1 FLS       0.134000
     43 H22         -0.3100     5.2800    -8.3670 ha         1 FLS       0.119000
     44 H21          1.1640     3.7630    -7.1020 ha         1 FLS       0.122000
     45 O16          3.7400     4.4760    -6.5080 o          1 FLS      -0.667500
     46 C5           4.2290     0.0000     3.2170 c3         1 FLS       0.016700
     47 O29          4.3070    -1.2250     0.8830 o          1 FLS      -0.580300
@<TRIPOS>BOND
     1     1     2 1   
     2     1     3 1   
     3     1     8 1   
     4     1    27 1   
     5     2    28 1   
     6     2    29 1   
     7     2    30 1   
     8     3     6 1   
     9     3    31 1   
    10     3    32 1   
    11     4     5 1   
    12     4    12 1   
    13     4    45 2   
    14     5    17 2   
    15     5    18 1   
    16     6     7 2   
    17     6    46 1   
    18     6    47 2   
    19     8     9 1   
    20     8    36 1   
    21     9    10 ar  
    22     9    14 ar  
    23    10    11 ar  
    24    11    12 1   
    25    11    16 ar  
    26    12    13 1   
    27    13    37 1   
    28    13    38 1   
    29    13    39 1   
    30    14    15 ar  
    31    15    16 ar  
    32    15    40 1   
    33    16    17 1   
    34    17    41 1   
    35    18    19 1   
    36    19    20 ar  
    37    19    26 ar  
    38    20    21 1   
    39    20    22 ar  
    40    22    23 ar  
    41    22    42 1   
    42    23    24 1   
    43    23    25 ar  
    44    25    26 ar  
    45    25    43 1   
    46    26    44 1   
    47    33    46 1   
    48    34    46 1   
    49    35    46 1   
@<TRIPOS>SUBSTRUCTURE
     1 FLS         1 TEMP              0 ****  ****    0 ROOT
