@<TRIPOS>MOLECULE
FLU
   36    39     1     0     0
SMALL
bcc


@<TRIPOS>ATOM
      1 C1         -0.0250   -0.3140    0.0390 ca        1 FLU      0.166100
      2 O1         -0.7690   -0.3450   -1.1190 oh        1 FLU     -0.500100
      3 C2          1.3520   -0.0830    0.0250 ca        1 FLU     -0.333300
      4 C3          2.0260   -0.0540    1.2580 ca        1 FLU      0.396000
      5 O2          3.3860    0.1680    1.1580 os        1 FLU     -0.398800
      6 C4          4.1230    0.1770    2.3360 cc        1 FLU      0.343700
      7 C5          5.4630    0.3710    2.1910 cd        1 FLU     -0.333200
      8 C6          6.3340    0.4280    3.3590 c         1 FLU      0.581500
      9 O3          7.5600    0.6270    3.2610 o         1 FLU     -0.601100
     10 C7          5.6780    0.2400    4.6600 cd        1 FLU     -0.271200
     11 C8          4.3480    0.0570    4.7740 cc        1 FLU     -0.018200
     12 C9          3.4700    0.0290    3.6230 cc        1 FLU     -0.239100
     13 C10         2.1080   -0.1360    3.7130 cd        1 FLU      0.173000
     14 C11         1.3510   -0.2250    2.4840 ca        1 FLU     -0.217300
     15 C12        -0.0340   -0.4900    2.4460 ca        1 FLU      0.005000
     16 C13        -0.7220   -0.5260    1.2440 ca        1 FLU     -0.189000
     17 C14         1.4270   -0.1090    5.0130 ca        1 FLU     -0.090000
     18 C15         1.5010    1.0970    5.7390 ca        1 FLU     -0.123000
     19 C16         0.8910    1.2160    6.9800 ca        1 FLU     -0.168000
     20 C17         0.2070    0.1250    7.5240 ca        1 FLU     -0.131000
     21 C18         0.1370   -1.0670    6.8160 ca        1 FLU     -0.122000
     22 C19         0.7400   -1.2010    5.5550 ca        1 FLU     -0.074600
     23 C20         0.5880   -2.5540    4.8570 c         1 FLU      0.906200
     24 O4          1.5340   -3.3760    4.9480 o         1 FLU     -0.809300
     25 O5         -0.5080   -2.7570    4.2630 o         1 FLU     -0.809300
     26 HO1        -0.1590   -0.2650   -1.8660 ho        1 FLU      0.414000
     27 H2          1.9090    0.0590   -0.9080 ha        1 FLU      0.145000
     28 H5          5.9240    0.4880    1.2010 ha        1 FLU      0.151000
     29 H7          6.3370    0.2470    5.5400 ha        1 FLU      0.139000
     30 H8          3.8710   -0.0970    5.7580 ha        1 FLU      0.151000
     31 H12        -0.5630   -0.7320    3.3910 ha        1 FLU      0.207000
     32 H13        -1.7980   -0.7460    1.2170 ha        1 FLU      0.156000
     33 H15         2.0480    1.9510    5.3120 ha        1 FLU      0.121000
     34 H16         0.9490    2.1630    7.5340 ha        1 FLU      0.114000
     35 H17        -0.2730    0.2150    8.5090 ha        1 FLU      0.114000
     36 H18        -0.4010   -1.9340    7.2320 ha        1 FLU      0.142000
@<TRIPOS>BOND
     1    1    2 1
     2    1    3 ar
     3    1   16 ar
     4    2   26 1
     5    3    4 ar
     6    3   27 1
     7    4    5 1
     8    4   14 ar
     9    5    6 1
    10    6    7 2
    11    6   12 1
    12    7    8 1
    13    7   28 1
    14    8    9 2
    15    8   10 1
    16   10   11 2
    17   10   29 1
    18   11   12 1
    19   11   30 1
    20   12   13 2
    21   13   14 1
    22   13   17 1
    23   14   15 ar
    24   15   16 ar
    25   15   31 1
    26   16   32 1
    27   17   18 ar
    28   17   22 ar
    29   18   19 ar
    30   18   33 1
    31   19   20 ar
    32   19   34 1
    33   20   21 ar
    34   20   35 1
    35   21   22 ar
    36   21   36 1
    37   22   23 1
    38   23   24 1
    39   23   25 1
@<TRIPOS>SUBSTRUCTURE
     1 FLU         1 TEMP              0 ****  ****    0 ROOT
