@<TRIPOS>MOLECULE
FLV
   21    22     1     0     0
SMALL
bcc


@<TRIPOS>ATOM
      1 OAB         0.0410    0.3420   -0.0460 o         1 FLV     -0.519100
      2 CAM         1.2720    0.2140   -0.0140 c         1 FLV      0.553900
      3 CAN         2.0460    0.1090    1.2400 ca        1 FLV     -0.062600
      4 CAH         1.3510    0.1560    2.4470 ca        1 FLV     -0.203000
      5 CAI         2.0600    0.0590    3.6580 ca        1 FLV      0.179100
      6 OAC         1.4390    0.0980    4.8800 oh        1 FLV     -0.486100
      7 CAF         3.4500   -0.0850    3.6660 ca        1 FLV     -0.240000
      8 CAK         4.1320   -0.1300    2.4390 ca        1 FLV      0.206100
      9 OAE         5.4910   -0.2690    2.3850 oh        1 FLV     -0.450100
     10 CAO         3.4450   -0.0350    1.2080 ca        1 FLV     -0.195600
     11 CAL         4.1870   -0.0850   -0.0690 c         1 FLV      0.581900
     12 OAA         5.4160   -0.2100   -0.1210 o         1 FLV     -0.491100
     13 CAG         3.3920    0.0210   -1.3030 cc        1 FLV     -0.236200
     14 CAJ         2.0510    0.1590   -1.2770 cd        1 FLV      0.043900
     15 OAD         1.3650    0.2530   -2.4620 oh        1 FLV     -0.482100
     16 HAH         0.2560    0.2690    2.4440 ha        1 FLV      0.163000
     17 HAC         0.4860    0.1990    4.7330 ho        1 FLV      0.431000
     18 HAF         3.9900   -0.1600    4.6210 ha        1 FLV      0.163000
     19 HAE         5.8290   -0.3230    3.2940 ho        1 FLV      0.425000
     20 HAG         3.9490   -0.0180   -2.2520 ha        1 FLV      0.176000
     21 HAD         0.4180    0.3460   -2.2560 ho        1 FLV      0.443000
@<TRIPOS>BOND
     1    1    2 2   
     2    2    3 1   
     3    2   14 1   
     4    3    4 ar  
     5    3   10 ar  
     6    4    5 ar  
     7    4   16 1   
     8    5    6 1   
     9    5    7 ar  
    10    6   17 1   
    11    7    8 ar  
    12    7   18 1   
    13    8    9 1   
    14    8   10 ar  
    15    9   19 1   
    16   10   11 1   
    17   11   12 2   
    18   11   13 1   
    19   13   14 2   
    20   13   20 1   
    21   14   15 1   
    22   15   21 1   
@<TRIPOS>SUBSTRUCTURE
     1 FLV         1 TEMP              0 ****  ****    0 ROOT
