@<TRIPOS>MOLECULE
molecule
   21    22     1     0     0
SMALL
bcc


@<TRIPOS>ATOM
      1 OAB          0.0000     0.0000     0.0000 o          1 FLV      -0.484100
      2 CAM          1.2150     0.0000     0.0000 c          1 FLV       0.552900
      3 CAN          1.9580     0.0000     1.2770 ca         1 FLV      -0.102600
      4 CAH          1.2860    -0.0050     2.4910 ca         1 FLV      -0.126000
      5 CAI          2.0080     0.0000     3.6850 ca         1 FLV       0.146100
      6 OAC          1.3480     0.0010     4.8710 oh         1 FLV      -0.516100
      7 CAF          3.3910    -0.0010     3.6670 ca         1 FLV      -0.205000
      8 CAK          4.0780    -0.0020     2.4570 ca         1 FLV       0.182100
      9 OAE          5.4340    -0.0030     2.4450 oh         1 FLV      -0.481100
     10 CAO          3.3660    -0.0020     1.2550 ca         1 FLV      -0.173600
     11 CAL          4.0710    -0.0020    -0.0380 c          1 FLV       0.568900
     12 OAA          5.2880    -0.0030    -0.0680 o          1 FLV      -0.480100
     13 CAG          3.3070    -0.0020    -1.2900 cc         1 FLV      -0.218200
     14 CAJ          1.9590    -0.0010    -1.2800 cd         1 FLV       0.046900
     15 OAD          1.2800    -0.0010    -2.4500 oh         1 FLV      -0.498100
     16 HAH          0.2050     0.0650     2.5110 ha         1 FLV       0.170000
     17 HAC          1.1840    -0.8880     5.1400 ho         1 FLV       0.431000
     18 HAF          3.9420     0.0030     4.6000 ha         1 FLV       0.155000
     19 HAE          5.7530     0.7230     2.9550 ho         1 FLV       0.430000
     20 HAG          3.8340    -0.0030    -2.2370 ha         1 FLV       0.169000
     21 HAD          1.1380    -0.8900    -2.7310 ho         1 FLV       0.433000
@<TRIPOS>BOND
     1     1     2 2
     2     2     3 1
     3     2    14 1
     4     3     4 ar
     5     3    10 ar
     6     4     5 ar
     7     4    16 1
     8     5     6 1
     9     5     7 ar
    10     6    17 1
    11     7     8 ar
    12     7    18 1
    13     8     9 1
    14     8    10 ar
    15     9    19 1
    16    10    11 1
    17    11    12 2
    18    11    13 1
    19    13    14 2
    20    13    20 1
    21    14    15 1
    22    15    21 1
@<TRIPOS>SUBSTRUCTURE
     1 FLV         1 TEMP              0 ****  ****    0 ROOT
