@<TRIPOS>MOLECULE
FLW
   49    51     1     0     0
SMALL
bcc


@<TRIPOS>ATOM
      1 C14          0.0000     0.0000     0.0000 ca         1 FLW      -0.134000
      2 C15          1.3850     0.0000     0.0000 ca         1 FLW       0.093900
      3 C20          1.9820     1.2450    12.1220 c3         1 FLW      -0.050400
      4 C21          0.7020     1.5360    11.3360 c3         1 FLW       0.214400
      5 C23          4.4740     1.1290    11.9810 c3         1 FLW      -0.050400
      6 C29          2.1240    -2.7510     6.3940 c3         1 FLW       0.040300
      7 F28         -2.0430    -0.0000     1.1980 f          1 FLW      -0.116900
      8 C13         -0.6920     0.0000     1.1980 ca         1 FLW       0.105900
      9 F27          2.0590     0.0000    -1.1710 f          1 FLW      -0.125900
     10 C16          2.0790     0.0000     1.1980 ca         1 FLW      -0.103000
     11 C17          1.3900    -0.0000     2.3960 ca         1 FLW      -0.137000
     12 C12          0.0040    -0.0010     2.4000 ca         1 FLW       0.115100
     13 O11         -0.6740     0.0010     3.5780 os         1 FLW      -0.174200
     14 C9           0.0440    -0.1160     4.7270 cc         1 FLW      -0.039100
     15 C10          0.1040     0.9270     5.6000 cd         1 FLW       0.014800
     16 C5           0.8850     0.7620     6.8240 ca         1 FLW      -0.441400
     17 C4           0.9990     1.7830     7.7720 ca         1 FLW       0.553200
     18 N1           1.7230     1.5580     8.8550 nb         1 FLW      -0.728000
     19 C8           0.7220    -1.3240     5.0180 c          1 FLW       0.587700
     20 O26          0.6530    -2.2490     4.2260 o          1 FLW      -0.662500
     21 N7           1.4410    -1.4780     6.1430 n          1 FLW       0.013700
     22 C6           1.5470    -0.4640     7.0590 ca         1 FLW       0.453200
     23 N3           2.2530    -0.6020     8.1750 nb         1 FLW      -0.741000
     24 C2           2.3330     0.3940     9.0450 ca         1 FLW       0.762900
     25 N18          3.0780     0.2120    10.1950 nu         1 FLW      -0.460900
     26 C19          3.1830     1.2940    11.1770 c3         1 FLW       0.133500
     27 C24          5.6790     1.3020    11.0550 c3         1 FLW       0.214400
     28 O25          6.8850     1.1470    11.8070 oh         1 FLW      -0.593300
     29 O22         -0.4200     1.4890    12.2200 oh         1 FLW      -0.593300
     30 H14         -0.5420     0.0000    -0.9380 ha         1 FLW       0.135000
     31 H20          2.1040     1.9880    12.9010 hc         1 FLW       0.033450
     32 H20A         1.9150     0.2610    12.5700 hc         1 FLW       0.033450
     33 H21          0.5790     0.7920    10.5580 h1         1 FLW      -0.006800
     34 H21A         0.7680     2.5200    10.8880 h1         1 FLW      -0.006800
     35 H23          4.5100     1.8760    12.7640 hc         1 FLW       0.033450
     36 H23A         4.4980     0.1400    12.4240 hc         1 FLW       0.033450
     37 H29          1.9020    -3.4440     5.5920 h1         1 FLW       0.034033
     38 H29A         3.1930    -2.5840     6.4420 h1         1 FLW       0.034033
     39 H29B         1.7810    -3.1650     7.3350 h1         1 FLW       0.034033
     40 H16          3.1620     0.0000     1.1960 ha         1 FLW       0.120000
     41 H17          1.9340    -0.0000     3.3330 ha         1 FLW       0.121000
     42 H10         -0.5950     1.7500     5.5100 ha         1 FLW       0.125000
     43 H4           0.5050     2.7350     7.6230 h4         1 FLW      -0.012900
     44 HN18         3.5110    -0.6710    10.3760 hn         1 FLW       0.307800
     45 H19          3.1990     2.2480    10.6620 h1         1 FLW       0.059700
     46 H24          5.6430     0.5550    10.2720 h1         1 FLW      -0.006800
     47 H24A         5.6550     2.2910    10.6120 h1         1 FLW      -0.006800
     48 HO25         7.6270     1.2610    11.2380 ho         1 FLW       0.391500
     49 HO22        -1.1620     1.9010    11.8080 ho         1 FLW       0.391500
@<TRIPOS>BOND
     1     1     2 ar  
     2     1     8 ar  
     3     1    30 1   
     4     2     9 1   
     5     2    10 ar  
     6     3     4 1   
     7     3    26 1   
     8     3    31 1   
     9     3    32 1   
    10     4    29 1   
    11     4    33 1   
    12     4    34 1   
    13     5    26 1   
    14     5    27 1   
    15     5    35 1   
    16     5    36 1   
    17     6    21 1   
    18     6    37 1   
    19     6    38 1   
    20     6    39 1   
    21     7     8 1   
    22     8    12 ar  
    23    10    11 ar  
    24    10    40 1   
    25    11    12 ar  
    26    11    41 1   
    27    12    13 1   
    28    13    14 1   
    29    14    15 2   
    30    14    19 1   
    31    15    16 1   
    32    15    42 1   
    33    16    17 ar  
    34    16    22 ar  
    35    17    18 ar  
    36    17    43 1   
    37    18    24 ar  
    38    19    20 2   
    39    19    21 1   
    40    21    22 1   
    41    22    23 ar  
    42    23    24 ar  
    43    24    25 1   
    44    25    26 1   
    45    25    44 1   
    46    26    45 1   
    47    27    28 1   
    48    27    46 1   
    49    27    47 1   
    50    28    48 1   
    51    29    49 1   
@<TRIPOS>SUBSTRUCTURE
     1 FLW         1 TEMP              0 ****  ****    0 ROOT
