@<TRIPOS>MOLECULE
FLX
   57    59     1     0     0
SMALL
bcc


@<TRIPOS>ATOM
      1 N           0.3720    0.1550    0.0690 n         1 FLX     -0.564900
      2 C17        -0.7360    0.8460   -0.3890 c         1 FLX      0.604600
      3 O5         -0.6740    1.6220   -1.3630 o         1 FLX     -0.585100
      4 C18        -2.0130    0.6330    0.3110 cc        1 FLX      0.169200
      5 O6         -2.0520   -0.2180    1.4290 os        1 FLX     -0.368800
      6 C19        -3.2740    1.1460    0.0620 cd        1 FLX     -0.162300
      7 C20        -4.1510    0.5940    1.0690 cd        1 FLX     -0.276300
      8 C21        -3.3720   -0.2210    1.8690 cc        1 FLX      0.272600
      9 CA          1.6690    0.2980   -0.5300 c3        1 FLX      0.039700
     10 CB          2.7820    0.6680    0.4640 c3        1 FLX     -0.094400
     11 CG          2.6840    2.1070    0.9500 c3        1 FLX     -0.065700
     12 CD1         3.5200    2.2810    2.2020 c3        1 FLX     -0.094600
     13 CD2         3.1350    3.0830   -0.1170 c3        1 FLX     -0.094600
     14 C           2.1280   -0.9900   -1.2640 c         1 FLX      0.635100
     15 O           2.4880   -0.9360   -2.4510 o         1 FLX     -0.582100
     16 N1          2.0620   -2.1890   -0.5590 n         1 FLX     -0.534900
     17 C1          2.6670   -3.4000   -1.0610 c3        1 FLX     -0.206500
     18 C2          4.1100   -3.6720   -0.6050 c3        1 FLX     -0.014200
     19 C3          5.1010   -3.5760   -1.6850 cc        1 FLX     -0.170400
     20 C6          6.2460   -4.4500   -1.8430 ca        1 FLX     -0.080800
     21 C5          6.9720   -3.9670   -2.9970 ca        1 FLX     -0.050200
     22 C7          6.7200   -5.5690   -1.1550 ca        1 FLX     -0.081000
     23 C4          5.1630   -2.6310   -2.7120 cd        1 FLX     -0.090100
     24 N2          6.2930   -2.8530   -3.4980 na        1 FLX     -0.188400
     25 C10         8.1480   -4.5980   -3.4290 ca        1 FLX     -0.144000
     26 C8          7.8830   -6.1830   -1.5960 ca        1 FLX     -0.154000
     27 C9          8.5870   -5.7020   -2.7150 ca        1 FLX     -0.114000
     28 P1          1.7070   -4.7010   -0.6330 p5        1 FLX      1.555300
     29 O1          1.2120   -4.4430    0.8780 oh        1 FLX     -0.785900
     30 O2          0.3060   -4.4990   -1.3690 oh        1 FLX     -0.785900
     31 O3          2.2500   -6.0470   -0.6900 o         1 FLX     -0.817300
     32 HN          0.2890   -0.4050    0.8840 hn        1 FLX      0.323500
     33 H19        -3.5520    1.8310   -0.7370 ha        1 FLX      0.183000
     34 H20        -5.2150    0.7930    1.1610 ha        1 FLX      0.171000
     35 H21        -3.5520   -0.8460    2.7400 h4        1 FLX      0.059100
     36 HA          1.6060    1.1000   -1.3330 h1        1 FLX      0.130700
     37 HB1         2.7540   -0.0240    1.3470 hc        1 FLX      0.052200
     38 HB2         3.7680    0.5200   -0.0520 hc        1 FLX      0.052200
     39 HG          1.6110    2.3330    1.2080 hc        1 FLX      0.055700
     40 HD11        4.5900    2.0330    1.9980 hc        1 FLX      0.038700
     41 HD12        3.1510    1.6150    3.0180 hc        1 FLX      0.038700
     42 HD13        3.4650    3.3390    2.5560 hc        1 FLX      0.038700
     43 HD21        3.0660    4.1290    0.2690 hc        1 FLX      0.038700
     44 HD22        4.1940    2.8850   -0.4100 hc        1 FLX      0.038700
     45 HD23        2.4920    3.0020   -1.0270 hc        1 FLX      0.038700
     46 HN1         2.0780   -2.1250    0.4370 hn        1 FLX      0.306500
     47 H1          2.6950   -3.3000   -2.1950 h1        1 FLX      0.151700
     48 H21A        4.4160   -2.9600    0.2150 hc        1 FLX      0.065200
     49 H22         4.1590   -4.7140   -0.1730 hc        1 FLX      0.065200
     50 H7          6.1690   -5.9590   -0.2880 ha        1 FLX      0.137000
     51 H4          4.4710   -1.8130   -2.9430 h4        1 FLX      0.192000
     52 HN2         6.5270   -2.3640   -4.3200 hn        1 FLX      0.300700
     53 H10         8.7000   -4.2310   -4.3050 ha        1 FLX      0.131000
     54 H8          8.2670   -7.0670   -1.0660 ha        1 FLX      0.130000
     55 H9          9.5050   -6.2190   -3.0300 ha        1 FLX      0.129000
     56 H2         -0.3080   -3.8830   -0.9780 ho        1 FLX      0.482000
     57 H12         1.2100   -5.2050    1.4520 ho        1 FLX      0.482000
@<TRIPOS>BOND
     1    1    2 1
     2    1    9 1
     3    1   32 1
     4    2    3 2
     5    2    4 1
     6    4    5 1
     7    4    6 2
     8    5    8 1
     9    6    7 1
    10    6   33 1
    11    7    8 2
    12    7   34 1
    13    8   35 1
    14    9   10 1
    15    9   14 1
    16    9   36 1
    17   10   11 1
    18   10   37 1
    19   10   38 1
    20   11   12 1
    21   11   13 1
    22   11   39 1
    23   12   40 1
    24   12   41 1
    25   12   42 1
    26   13   43 1
    27   13   44 1
    28   13   45 1
    29   14   15 2
    30   14   16 1
    31   16   17 1
    32   16   46 1
    33   17   18 1
    34   17   28 1
    35   17   47 1
    36   18   19 1
    37   18   48 1
    38   18   49 1
    39   19   20 1
    40   19   23 2
    41   20   21 ar
    42   20   22 ar
    43   21   24 1
    44   21   25 ar
    45   22   26 ar
    46   22   50 1
    47   23   24 1
    48   23   51 1
    49   24   52 1
    50   25   27 ar
    51   25   53 1
    52   26   27 ar
    53   26   54 1
    54   27   55 1
    55   28   29 1
    56   28   30 1
    57   28   31 2
    58   29   57 1
    59   30   56 1
@<TRIPOS>SUBSTRUCTURE
     1 FLX         1 TEMP              0 ****  ****    0 ROOT
