@<TRIPOS>MOLECULE
molecule
   41    43     1     0     0
SMALL
bcc


@<TRIPOS>ATOM
      1 C2           0.0000     0.0000     0.0000 ca         1 FLY       0.557200
      2 C3           0.0970     0.0000     2.4170 ca         1 FLY       0.641200
      3 N1           1.3210     0.0000     0.0000 nb         1 FLY      -0.815000
      4 C4          -0.6680     0.0000     1.2300 ca         1 FLY      -0.439400
      5 C5          -2.1250     0.0010     1.3190 cc         1 FLY      -0.011200
      6 C6          -2.6960     0.0010     2.5550 cd         1 FLY      -0.041100
      7 C7          -1.8810     0.0020     3.7130 c          1 FLY       0.685700
      8 C9           2.0080     0.0000     1.1370 ca         1 FLY       0.986900
      9 C11          4.0670    -0.0010    -0.2200 c3         1 FLY       0.240500
     10 C13          4.1920     1.4360    -0.7300 c3         1 FLY      -0.109600
     11 C14          5.4620    -0.6110    -0.0660 c3         1 FLY      -0.109600
     12 C17         -4.6440    -1.1050     3.1980 ca         1 FLY       0.092100
     13 C18         -3.8890    -2.2340     3.4730 ca         1 FLY      -0.147000
     14 C19         -4.4930    -3.3570     4.0070 ca         1 FLY      -0.146000
     15 C20         -5.8530    -3.3550     4.2670 ca         1 FLY       0.126900
     16 C21         -6.6110    -2.2290     3.9930 ca         1 FLY      -0.180000
     17 C22         -6.0090    -1.1030     3.4590 ca         1 FLY       0.141900
     18 F24         -6.4410    -4.4530     4.7890 f          1 FLY      -0.136900
     19 F23         -6.7480    -0.0040     3.1920 f          1 FLY      -0.123900
     20 O16         -4.0510     0.0020     2.6780 os         1 FLY      -0.202200
     21 O15         -2.4100     0.0020     4.8110 o          1 FLY      -0.615500
     22 N8          -0.5390     0.0020     3.6320 n          1 FLY      -0.410300
     23 C25          0.2570     0.0020     4.8630 c3         1 FLY       0.086300
     24 N10          1.4210     0.0010     2.3240 nb         1 FLY      -0.847000
     25 N12          3.3890    -0.0000     1.0790 nu         1 FLY      -0.879900
     26 H2          -0.5540    -0.0000    -0.9310 h4         1 FLY       0.038100
     27 H5          -2.7360     0.0000     0.4250 ha         1 FLY       0.157000
     28 H11          3.5080    -0.5920    -0.9350 h1         1 FLY       0.079700
     29 H13          3.2170     1.7960    -1.0370 hc         1 FLY       0.044700
     30 H13A         4.5780     2.0680     0.0610 hc         1 FLY       0.044700
     31 H13B         4.8690     1.4610    -1.5760 hc         1 FLY       0.044700
     32 H14          5.9390    -0.6710    -1.0370 hc         1 FLY       0.044700
     33 H14A         5.3770    -1.6040     0.3570 hc         1 FLY       0.044700
     34 H14B         6.0570     0.0120     0.5910 hc         1 FLY       0.044700
     35 H18         -2.8250    -2.2360     3.2700 ha         1 FLY       0.148000
     36 H19         -3.9020    -4.2390     4.2230 ha         1 FLY       0.150000
     37 H21         -7.6750    -2.2290     4.1970 ha         1 FLY       0.164000
     38 H25          0.8460    -0.9060     4.9120 h1         1 FLY       0.064033
     39 H25A        -0.4040     0.0510     5.7200 h1         1 FLY       0.064033
     40 H25B         0.9170     0.8610     4.8660 h1         1 FLY       0.064033
     41 HN12         3.9260    -0.0240     1.9230 hn         1 FLY       0.460800
@<TRIPOS>BOND
     1     1     3 ar
     2     1     4 ar
     3     2     4 ar
     4     2    22 1
     5     2    24 ar
     6     3     8 ar
     7     4     5 1
     8     5     6 2
     9     6     7 1
    10     6    20 1
    11     7    21 2
    12     7    22 1
    13     8    24 ar
    14     8    25 1
    15     9    10 1
    16     9    11 1
    17     9    25 1
    18    12    13 ar
    19    12    17 ar
    20    12    20 1
    21    13    14 ar
    22    14    15 ar
    23    15    16 ar
    24    15    18 1
    25    16    17 ar
    26    17    19 1
    27    22    23 1
    28     1    26 1
    29     5    27 1
    30     9    28 1
    31    10    29 1
    32    10    30 1
    33    10    31 1
    34    11    32 1
    35    11    33 1
    36    11    34 1
    37    13    35 1
    38    14    36 1
    39    16    37 1
    40    23    38 1
    41    23    39 1
    42    23    40 1
    43    25    41 1
@<TRIPOS>SUBSTRUCTURE
     1 FLY         1 TEMP              0 ****  ****    0 ROOT
