@<TRIPOS>MOLECULE
FLY
   41    43     1     0     0
SMALL
bcc


@<TRIPOS>ATOM
      1 C2           0.0000     0.0000     0.0000 ca         1 FLY       0.557200
      2 C3           0.0970     0.0000     2.4170 ca         1 FLY       0.453200
      3 N1           1.3210     0.0000     0.0000 nb         1 FLY      -0.719000
      4 C4          -0.6680     0.0000     1.2300 ca         1 FLY      -0.443400
      5 C5          -2.1250     0.0010     1.3190 cc         1 FLY       0.020800
      6 C6          -2.6960     0.0010     2.5550 cd         1 FLY      -0.046100
      7 C7          -1.8810     0.0020     3.7130 c          1 FLY       0.589700
      8 C9           2.0080     0.0000     1.1370 ca         1 FLY       0.761900
      9 C11          4.0670    -0.0010    -0.2200 c3         1 FLY       0.126500
     10 C13          4.1920     1.4360    -0.7300 c3         1 FLY      -0.011600
     11 C14          5.4620    -0.6110    -0.0660 c3         1 FLY      -0.011600
     12 C17         -4.6440    -1.1050     3.1980 ca         1 FLY       0.115100
     13 C18         -3.8890    -2.2340     3.4730 ca         1 FLY      -0.137000
     14 C19         -4.4930    -3.3570     4.0070 ca         1 FLY      -0.103000
     15 C20         -5.8530    -3.3550     4.2670 ca         1 FLY       0.092900
     16 C21         -6.6110    -2.2290     3.9930 ca         1 FLY      -0.134000
     17 C22         -6.0090    -1.1030     3.4590 ca         1 FLY       0.104900
     18 F24         -6.4410    -4.4530     4.7890 f          1 FLY      -0.125900
     19 F23         -6.7480    -0.0040     3.1920 f          1 FLY      -0.116900
     20 O16         -4.0510     0.0020     2.6780 os         1 FLY      -0.173200
     21 O15         -2.4100     0.0020     4.8110 o          1 FLY      -0.665500
     22 N8          -0.5390     0.0020     3.6320 n          1 FLY       0.011700
     23 C25          0.2570     0.0020     4.8630 c3         1 FLY       0.040300
     24 N10          1.4210     0.0010     2.3240 nb         1 FLY      -0.743000
     25 N12          3.3890    -0.0000     1.0790 nu         1 FLY      -0.456900
     26 H2          -0.5540    -0.0000    -0.9310 h4         1 FLY      -0.013900
     27 H5          -2.7360     0.0000     0.4250 ha         1 FLY       0.123000
     28 H11          3.5080    -0.5920    -0.9350 h1         1 FLY       0.055700
     29 H13          3.2170     1.7960    -1.0370 hc         1 FLY       0.011867
     30 H13A         4.5780     2.0680     0.0610 hc         1 FLY       0.011867
     31 H13B         4.8690     1.4610    -1.5760 hc         1 FLY       0.011867
     32 H14          5.9390    -0.6710    -1.0370 hc         1 FLY       0.011867
     33 H14A         5.3770    -1.6040     0.3570 hc         1 FLY       0.011867
     34 H14B         6.0570     0.0120     0.5910 hc         1 FLY       0.011867
     35 H18         -2.8250    -2.2360     3.2700 ha         1 FLY       0.122000
     36 H19         -3.9020    -4.2390     4.2230 ha         1 FLY       0.120000
     37 H21         -7.6750    -2.2290     4.1970 ha         1 FLY       0.135000
     38 H25          0.8460    -0.9060     4.9120 h1         1 FLY       0.033033
     39 H25A        -0.4040     0.0510     5.7200 h1         1 FLY       0.033033
     40 H25B         0.9170     0.8610     4.8660 h1         1 FLY       0.033033
     41 HN12         3.9260    -0.0240     1.9230 hn         1 FLY       0.302800
@<TRIPOS>BOND
     1     1     3 ar  
     2     1     4 ar  
     3     1    26 1   
     4     2     4 ar  
     5     2    22 1   
     6     2    24 ar  
     7     3     8 ar  
     8     4     5 1   
     9     5     6 2   
    10     5    27 1   
    11     6     7 1   
    12     6    20 1   
    13     7    21 2   
    14     7    22 1   
    15     8    24 ar  
    16     8    25 1   
    17     9    10 1   
    18     9    11 1   
    19     9    25 1   
    20     9    28 1   
    21    10    29 1   
    22    10    30 1   
    23    10    31 1   
    24    11    32 1   
    25    11    33 1   
    26    11    34 1   
    27    12    13 ar  
    28    12    17 ar  
    29    12    20 1   
    30    13    14 ar  
    31    13    35 1   
    32    14    15 ar  
    33    14    36 1   
    34    15    16 ar  
    35    15    18 1   
    36    16    17 ar  
    37    16    37 1   
    38    17    19 1   
    39    22    23 1   
    40    23    38 1   
    41    23    39 1   
    42    23    40 1   
    43    25    41 1   
@<TRIPOS>SUBSTRUCTURE
     1 FLY         1 TEMP              0 ****  ****    0 ROOT
