@<TRIPOS>MOLECULE
molecule
   46    49     1     0     0
SMALL
bcc


@<TRIPOS>ATOM
      1 O11          0.0000     0.0000     0.0000 os         1 FLZ      -0.219200
      2 C10          2.3560     0.0000     0.0000 cc         1 FLZ      -0.024200
      3 C6           3.5380     0.0020     2.1780 ca         1 FLZ       0.640200
      4 C5           3.5990     0.0000     0.7670 ca         1 FLZ      -0.434400
      5 C4           4.8520    -0.0020     0.1450 ca         1 FLZ       0.555200
      6 C2           5.8390     0.0000     2.2330 ca         1 FLZ       0.983900
      7 C9           1.1770     0.0010     0.6810 cd         1 FLZ      -0.027100
      8 C12         -0.7870    -1.1040     0.0880 ca         1 FLZ       0.141100
      9 C22          9.3580     0.6080     3.2390 c3         1 FLZ      -0.134400
     10 C15         -2.0480    -1.1050    -0.4900 ca         1 FLZ      -0.170000
     11 C17         -2.3890    -3.3520     0.2650 ca         1 FLZ      -0.161000
     12 C16         -2.8460    -2.2290    -0.4000 ca         1 FLZ      -0.094500
     13 C18         -1.1300    -3.3540     0.8380 ca         1 FLZ      -0.094500
     14 C8           1.1750     0.0040     2.0960 c          1 FLZ       0.684700
     15 C19         -0.3280    -2.2330     0.7510 ca         1 FLZ      -0.170000
     16 N1           5.9320    -0.0020     0.9070 nb         1 FLZ      -0.820000
     17 N7           2.3190     0.0040     2.8050 n          1 FLZ      -0.410300
     18 N3           4.6750     0.0020     2.8640 nb         1 FLZ      -0.847000
     19 N20          7.0000     0.0000     2.9810 nu         1 FLZ      -0.880900
     20 C21          8.3030    -0.0020     2.3110 c3         1 FLZ       0.247500
     21 C26          8.7050    -1.4430     1.9770 c3         1 FLZ      -0.134400
     22 C25         10.1010    -1.4420     1.3490 c3         1 FLZ       0.140900
     23 O24         11.0270    -0.8330     2.2510 os         1 FLZ      -0.421600
     24 C23         10.7290     0.5290     2.5620 c3         1 FLZ       0.140900
     25 H10          2.3720     0.2400    -1.0560 ha         1 FLZ       0.156000
     26 H4           4.9360    -0.0030    -0.9350 h4         1 FLZ       0.038100
     27 H14          1.2260     0.0590     4.5880 h1         1 FLZ       0.063033
     28 H14A         2.8000     0.8650     4.6500 h1         1 FLZ       0.063033
     29 H14B         2.7100    -0.9020     4.6500 h1         1 FLZ       0.063033
     30 H22          9.1120     1.6450     3.4340 hc         1 FLZ       0.059200
     31 H22A         9.3840     0.0550     4.1700 hc         1 FLZ       0.059200
     32 H15         -2.4060    -0.2260    -1.0120 ha         1 FLZ       0.138000
     33 H17         -3.0160    -4.2330     0.3340 ha         1 FLZ       0.129000
     34 H16         -3.8320    -2.2310    -0.8500 ha         1 FLZ       0.131500
     35 H18         -0.7730    -4.2360     1.3570 ha         1 FLZ       0.131500
     36 H19          0.6580    -2.2350     1.1990 ha         1 FLZ       0.138000
     37 HN20         6.9520     0.0370     3.9800 hn         1 FLZ       0.460800
     38 H21          8.2480     0.5780     1.3980 h1         1 FLZ       0.081700
     39 H26          8.7180    -2.0340     2.8850 hc         1 FLZ       0.059200
     40 H26A         7.9940    -1.8620     1.2750 hc         1 FLZ       0.059200
     41 H25         10.0790    -0.8800     0.4220 h1         1 FLZ       0.050950
     42 H25A        10.4080    -2.4620     1.1510 h1         1 FLZ       0.050950
     43 H23         10.7140     1.1120     1.6490 h1         1 FLZ       0.050950
     44 H23A        11.4850     0.9190     3.2320 h1         1 FLZ       0.050950
     45 C14          2.2600     0.0070     4.2690 c3         1 FLZ       0.086300
     46 O13          0.1100     0.0050     2.6880 o          1 FLZ      -0.612500
@<TRIPOS>BOND
     1     1     7 1
     2     1     8 1
     3     2     4 1
     4     2     7 2
     5     3     4 ar
     6     3    17 1
     7     3    18 ar
     8     4     5 ar
     9     5    16 ar
    10     6    16 ar
    11     6    18 ar
    12     6    19 1
    13     7    14 1
    14     8    10 ar
    15     8    15 ar
    16    45    17 1
    17     9    20 1
    18     9    24 1
    19    10    12 ar
    20    11    12 ar
    21    11    13 ar
    22    13    15 ar
    23    46    14 2
    24    14    17 1
    25    19    20 1
    26    20    21 1
    27    21    22 1
    28    22    23 1
    29    23    24 1
    30     2    25 1
    31     5    26 1
    32    45    27 1
    33    45    28 1
    34    45    29 1
    35     9    30 1
    36     9    31 1
    37    10    32 1
    38    11    33 1
    39    12    34 1
    40    13    35 1
    41    15    36 1
    42    19    37 1
    43    20    38 1
    44    21    39 1
    45    21    40 1
    46    22    41 1
    47    22    42 1
    48    24    43 1
    49    24    44 1
@<TRIPOS>SUBSTRUCTURE
     1 FLZ         1 TEMP              0 ****  ****    0 ROOT
