@<TRIPOS>MOLECULE
molecule
   28    27     1     0     0
SMALL
bcc


@<TRIPOS>ATOM
      1 OAA          0.0000     0.0000     0.0000 o          1 FM0      -0.854800
      2 OAB         -5.1140    -6.1900    -4.2880 o          1 FM0      -0.961500
      3 OAC         -4.0440    -1.5410    -4.4700 o          1 FM0      -0.882000
      4 OAD          1.8790     0.0000     1.1630 o          1 FM0      -0.854800
      5 OAE          0.1410     1.1920    -2.3540 oh         1 FM0      -0.557800
      6 OAF         -3.3630    -5.9450    -6.2350 o          1 FM0      -0.961500
      7 OAG         -5.3510    -4.4000    -6.0520 o          1 FM0      -0.961500
      8 OAH         -2.3230    -2.5920    -5.9880 o          1 FM0      -0.882000
      9 CAJ          1.7350     0.0820    -3.7920 c3         1 FM0       0.100900
     10 CAL          0.0960    -1.2230    -2.4290 c3         1 FM0      -0.085400
     11 CAM          1.9620     0.0010    -1.3050 c3         1 FM0      -0.208400
     12 OAN         -1.7200    -2.3570    -3.5490 os         1 FM0      -0.605200
     13 OAO         -3.5040    -4.1110    -4.3560 os         1 FM0      -0.717800
     14 CAP          1.2080     0.0000     0.0000 c          1 FM0       0.893600
     15 CAQ          0.9690     0.0330    -2.4670 c3         1 FM0       0.151800
     16 PAR         -4.3550    -5.1460    -5.2500 p5         1 FM0       1.323900
     17 PAS         -2.8850    -2.6490    -4.6200 p5         1 FM0       1.450800
     18 HOAE         0.6530     1.9640    -2.5310 ho         1 FM0       0.360000
     19 HAJ          2.3590    -0.7990    -3.8800 h1         1 FM0       0.055700
     20 HAJA         1.0310     0.1100    -4.6150 h1         1 FM0       0.055700
     21 HAK         -1.5330    -0.3060    -3.4900 h1         1 FM0       0.009700
     22 HAKA        -0.3700    -1.1450    -4.5260 h1         1 FM0       0.009700
     23 HAL         -0.4390    -1.2610    -1.4880 hc         1 FM0       0.074200
     24 HALA         0.7230    -2.1010    -2.5240 hc         1 FM0       0.074200
     25 HAM          2.5680    -0.8940    -1.3720 hc         1 FM0       0.021700
     26 HAMA         2.6010     0.8750    -1.3520 hc         1 FM0       0.021700
     27 CAK         -0.9060    -1.1840    -3.5850 c3         1 FM0       0.232400
     28 FAI          2.5370     1.2270    -3.8250 f          1 FM0      -0.303300
@<TRIPOS>BOND
     1     1    14 1
     2    16     2 1
     3    17     3 1
     4    14     4 1
     5     5    15 1
     6     5    18 1
     7    16     6 1
     8     7    16 1
     9     8    17 1
    10    28     9 1
    11     9    15 1
    12     9    19 1
    13     9    20 1
    14    27    10 1
    15    27    12 1
    16    27    21 1
    17    27    22 1
    18    15    10 1
    19    10    23 1
    20    10    24 1
    21    15    11 1
    22    11    14 1
    23    11    25 1
    24    11    26 1
    25    17    12 1
    26    17    13 1
    27    13    16 1
@<TRIPOS>SUBSTRUCTURE
     1 FM0         1 TEMP              0 ****  ****    0 ROOT
