@<TRIPOS>MOLECULE
FM0
   28    25     1     0     0
SMALL
bcc


@<TRIPOS>ATOM
      1 OAA      -176.5390 -107.9910  132.8380 o         1 FM0     -0.601500
      2 OAB      -175.4330 -110.9910  121.7500 o         1 FM0     -0.920500
      3 OAC      -175.0150 -107.6650  124.8780 o         1 FM0     -0.860500
      4 OAD      -174.5380 -107.2560  132.2140 o         1 FM0     -0.601500
      5 OAE      -173.6680 -108.0100  129.6820 oh        1 FM0     -0.302000
      6 OAF      -172.9710 -111.5330  122.0140 o         1 FM0     -0.920500
      7 OAG      -173.6760 -109.3800  120.8550 o         1 FM0     -0.920500
      8 OAH      -172.5970 -108.2840  125.2000 o         1 FM0     -0.860500
      9 CAJ      1025.9270  637.2020 -802.8180 c2        1 FM0     -0.600000
     10 CAL      -175.1030 -109.4390  128.4230 c3        1 FM0     -0.189000
     11 CAM      -175.7920 -108.5940  130.6640 c2        1 FM0     -0.322000
     12 OAN      -174.4490 -109.6290  126.1520 os        1 FM0     -0.391000
     13 OAO      -173.9840 -109.5310  123.3990 os        1 FM0     -1.210000
     14 CAP      -175.6110 -107.9020  131.9790 c2        1 FM0      0.361000
     15 CAQ      -174.8910 -108.6320  129.6620 c2        1 FM0      0.055000
     16 PAR      -174.0240 -110.4990  121.7840 p5        1 FM0      1.645500
     17 PAS      -173.8940 -108.5740  124.5610 p5        1 FM0      1.965000
     18 HOAE     -173.5930 -107.5120  130.5220 ho        1 FM0      0.266000
     19 HAJ      1026.1610  636.1730 -802.4500 h4        1 FM0     -0.063000
     20 HAJA     1024.9340  637.1790 -803.3280 h4        1 FM0     -0.063000
     21 HAK      -139.6080  -94.4510  161.1600 ha        1 FM0      0.000000
     22 HAKA     -139.1940  -94.9780  161.0680 ha        1 FM0      0.000000
     23 HAL      -174.1230 -107.8490  127.1280 h4        1 FM0      0.187000
     24 HALA     -176.2080 -109.5500  128.2420 hc        1 FM0      0.116000
     25 HAM      -176.7530 -109.1140  130.5520 ha        1 FM0      0.112000
     26 HAMA     -174.6870 -110.4700  128.6000 hc        1 FM0      0.116000
     27 CAK      -174.5010 -108.8950  127.1620 c2        1 FM0      0.275000
     28 FAI      1025.8660  638.0620 -801.7460 f         1 FM0     -0.274000
@<TRIPOS>BOND
     1    1   14 1   
     2    2   16 1   
     3    3   17 1   
     4    4   14 1   
     5    5   15 1   
     6    5   18 1   
     7    6   16 1   
     8    7   16 1   
     9    8   17 1   
    10    9   19 1   
    11    9   20 1   
    12    9   28 1   
    13   10   15 1   
    14   10   24 1   
    15   10   26 1   
    16   10   27 1   
    17   11   14 1   
    18   11   15 1   
    19   11   25 1   
    20   12   17 1   
    21   12   27 1   
    22   13   16 1   
    23   13   17 1   
    24   21   22 1   
    25   23   27 1   
@<TRIPOS>SUBSTRUCTURE
     1 FM0         1 TEMP              0 ****  ****    0 ROOT
