@<TRIPOS>MOLECULE
FM1
   35    37     1     0     0
SMALL
bcc


@<TRIPOS>ATOM
      1 N1           0.0000     0.0000     0.0000 nb         1 FM1      -0.693000
      2 C2           1.3220     0.0000     0.0000 ca         1 FM1       0.640900
      3 N3           2.0290     0.0000     1.1060 nb         1 FM1      -0.607000
      4 C4           1.4240     0.0000     2.3010 ca         1 FM1       0.298000
      5 C5           0.0190     0.0060     2.3460 ca         1 FM1      -0.493800
      6 C6          -0.6880     0.0010     1.1360 ca         1 FM1       0.554200
      7 N6          -2.0710     0.0000     1.1240 nu         1 FM1      -0.501900
      8 N7          -0.3320     0.0040     3.6690 na         1 FM1       0.443900
      9 N8           0.8450    -0.0020     4.4300 nc         1 FM1      -0.609100
     10 C9           1.8790     0.0000     3.6360 cd         1 FM1       0.274300
     11 C1'          3.3200    -0.0050     4.0740 c3         1 FM1       0.161800
     12 C2'          3.6180     1.2240     4.9600 c3         1 FM1       0.135100
     13 O2'          4.2320     2.2640     4.1970 oh         1 FM1      -0.549800
     14 C3'          4.5980     0.6850     6.0290 c3         1 FM1       0.136100
     15 O3'          5.8470     1.3740     5.9550 oh         1 FM1      -0.552800
     16 C4'          4.7770    -0.8020     5.6570 c3         1 FM1       0.150100
     17 O4'          3.5840    -1.1450     4.9190 os         1 FM1      -0.368600
     18 C5'          4.8870    -1.6600     6.9200 c3         1 FM1       0.225400
     19 O5'          4.9790    -3.0370     6.5530 oh         1 FM1      -0.576800
     20 C66         -2.7940     0.0020    -0.1500 c3         1 FM1       0.204100
     21 H2           1.8430    -0.0000    -0.9500 h5         1 FM1      -0.000900
     22 HN61        -2.5780    -0.0010     1.9870 hn         1 FM1       0.281800
     23 H7          -1.2660     0.0040     4.0300 hn         1 FM1       0.149700
     24 H1'          3.9790    -0.0160     3.2150 h1         1 FM1       0.059700
     25 H2'          2.7080     1.5790     5.4300 h1         1 FM1       0.020700
     26 HO2'         3.7660     3.0720     4.3340 ho         1 FM1       0.383000
     27 H3'          4.1650     0.7770     7.0180 h1         1 FM1       0.009700
     28 HO3'         5.9900     1.8540     6.7540 ho         1 FM1       0.383000
     29 H4'          5.6530    -0.9280     5.0330 h1         1 FM1       0.046700
     30 H5'1         5.7720    -1.3740     7.4750 h1         1 FM1      -0.010800
     31 H5'2         4.0090    -1.5090     7.5370 h1         1 FM1      -0.010800
     32 HO5'         5.1310    -3.5590     7.3240 ho         1 FM1       0.385000
     33 H661        -3.8600     0.0020     0.0390 h1         1 FM1       0.011033
     34 H662        -2.5280    -0.8830    -0.7170 h1         1 FM1       0.011033
     35 H663        -2.5270     0.8860    -0.7160 h1         1 FM1       0.011033
@<TRIPOS>BOND
     1     1     2 ar  
     2     1     6 ar  
     3     2     3 ar  
     4     2    21 1   
     5     3     4 ar  
     6     4     5 ar  
     7     4    10 1   
     8     5     6 ar  
     9     5     8 1   
    10     6     7 1   
    11     7    20 1   
    12     7    22 1   
    13     8     9 1   
    14     8    23 1   
    15     9    10 2   
    16    10    11 1   
    17    11    12 1   
    18    11    17 1   
    19    11    24 1   
    20    12    13 1   
    21    12    14 1   
    22    12    25 1   
    23    13    26 1   
    24    14    15 1   
    25    14    16 1   
    26    14    27 1   
    27    15    28 1   
    28    16    17 1   
    29    16    18 1   
    30    16    29 1   
    31    18    19 1   
    32    18    30 1   
    33    18    31 1   
    34    19    32 1   
    35    20    33 1   
    36    20    34 1   
    37    20    35 1   
@<TRIPOS>SUBSTRUCTURE
     1 FM1         1 TEMP              0 ****  ****    0 ROOT
