@<TRIPOS>MOLECULE
molecule
   36    38     1     0     0
SMALL
bcc


@<TRIPOS>ATOM
      1 N1           0.0000     0.0000     0.0000 na         1 FM2      -0.098900
      2 C2           1.3220     0.0000     0.0000 ca         1 FM2       0.500400
      3 N3           2.0280     0.0000     1.1060 nb         1 FM2      -0.584000
      4 C4           1.4230    -0.0020     2.3000 ca         1 FM2       0.361000
      5 C5           0.0180    -0.0020     2.3470 ca         1 FM2      -0.192500
      6 C6          -0.6890     0.0040     1.1360 ca         1 FM2       0.154500
      7 N6          -2.0730     0.0040     1.1230 nv         1 FM2      -0.539200
      8 N7          -0.3350    -0.0030     3.6690 na         1 FM2       0.004900
      9 N8           0.8420    -0.0040     4.4300 nc         1 FM2      -0.389100
     10 C9           1.8760    -0.0030     3.6370 cd         1 FM2       0.293300
     11 C1'          3.3180    -0.0020     4.0750 c3         1 FM2       0.113800
     12 C2'          3.7140     1.3850     4.6270 c3         1 FM2       0.103100
     13 O2'          4.3940     2.1520     3.6310 oh         1 FM2      -0.565800
     14 C3'          4.6610     1.0630     5.8050 c3         1 FM2       0.105100
     15 O3'          5.9580     1.6180     5.5730 oh         1 FM2      -0.565800
     16 C4'          4.7290    -0.4800     5.8230 c3         1 FM2       0.126100
     17 O4'          3.5080    -0.9100     5.1830 os         1 FM2      -0.377600
     18 C5'          4.7870    -0.9970     7.2610 c3         1 FM2       0.149400
     19 O5'          4.8930    -2.4220     7.2510 oh         1 FM2      -0.596800
     20 C11         -0.7190     0.0010    -1.2760 c3         1 FM2      -0.012400
     21 H2           1.8430    -0.0030    -0.9500 h5         1 FM2       0.101100
     22 HN61        -2.5730     0.8710     1.1380 hn         1 FM2       0.321700
     23 HN62        -2.5730    -0.8630     1.1380 hn         1 FM2       0.321700
     24 H7          -1.2690    -0.0040     4.0290 hn         1 FM2       0.367700
     25 H1'          3.9670    -0.2760     3.2520 h1         1 FM2       0.109700
     26 H2'          2.8360     1.9120     4.9830 h1         1 FM2       0.048700
     27 HO2'         4.0130     3.0130     3.5830 ho         1 FM2       0.408000
     28 H3'          4.2450     1.4330     6.7350 h1         1 FM2       0.055700
     29 HO3'         6.1420     2.2720     6.2260 ho         1 FM2       0.411000
     30 H4'          5.5880    -0.8240     5.2580 h1         1 FM2       0.094700
     31 H5'1         5.6490    -0.5750     7.7620 h1         1 FM2       0.035700
     32 H5'2         3.8850    -0.7060     7.7860 h1         1 FM2       0.035700
     33 HO5'         5.0000    -2.7360     8.1330 ho         1 FM2       0.413000
     34 H111        -1.3390     0.8860    -1.3410 h1         1 FM2       0.094700
     35 H112        -1.3430    -0.8830    -1.3400 h1         1 FM2       0.094700
     36 H113        -0.0060    -0.0010    -2.0920 h1         1 FM2       0.094700
@<TRIPOS>BOND
     1     1     2 1
     2     1     6 2
     3     1    20 1
     4     2     3 ar
     5     2    21 1
     6     3     4 ar
     7     4     5 ar
     8     4    10 1
     9     5     6 ar
    10     5     8 1
    11     6     7 1
    12     7    22 1
    13     7    23 1
    14     8     9 1
    15     8    24 1
    16     9    10 2
    17    10    11 1
    18    11    12 1
    19    11    17 1
    20    11    25 1
    21    12    13 1
    22    12    14 1
    23    12    26 1
    24    13    27 1
    25    14    15 1
    26    14    16 1
    27    14    28 1
    28    15    29 1
    29    16    17 1
    30    16    18 1
    31    16    30 1
    32    18    19 1
    33    18    31 1
    34    18    32 1
    35    19    33 1
    36    20    34 1
    37    20    35 1
    38    20    36 1
@<TRIPOS>SUBSTRUCTURE
     1 FM2         1 TEMP              0 ****  ****    0 ROOT
