@<TRIPOS>MOLECULE
molecule
   17    17     1     0     0
SMALL
bcc


@<TRIPOS>ATOM
      1 O            0.0000     0.0000     0.0000 op         1 FM4      -0.402600
      2 P            2.2790    -1.5440    -0.4670 p5         1 FM4       1.266600
      3 C1           1.4290     0.0000     0.0000 cx         1 FM4      -0.040100
      4 C2           0.6100     0.0000     1.2920 cx         1 FM4       0.015100
      5 O2           3.2810    -3.6240    -2.9260 o          1 FM4      -0.948500
      6 P2           3.9180    -2.2920    -2.8200 p5         1 FM4       1.295900
      7 C3           0.5590    -1.2960     2.1050 c3         1 FM4      -0.084100
      8 O3           5.3850    -2.4480    -2.1770 o          1 FM4      -0.948500
      9 O4           4.0400    -1.6390    -4.2860 o          1 FM4      -0.948500
     10 O1P          1.2010    -2.7330    -0.5890 o          1 FM4      -0.847500
     11 O2P          3.0200    -1.3410    -1.8820 os         1 FM4      -0.717800
     12 O3P          3.2790    -1.8880     0.5680 o          1 FM4      -0.847500
     13 H1           1.8840     0.9510    -0.2500 h1         1 FM4       0.038700
     14 H2           0.5780     0.9510     1.8110 h1         1 FM4       0.019700
     15 H3          -0.0420    -1.1420     2.9930 hc         1 FM4       0.049033
     16 H3A          1.5630    -1.5810     2.3940 hc         1 FM4       0.049033
     17 H3B          0.1200    -2.0830     1.5030 hc         1 FM4       0.049033
@<TRIPOS>BOND
     1     2    10 1
     2     2    11 1
     3     3     1 1
     4     3     2 1
     5     3    13 1
     6     4     1 1
     7     4     3 1
     8     4    14 1
     9     5     6 1
    10     6     8 1
    11     7     4 1
    12     7    15 1
    13     7    16 1
    14     7    17 1
    15     9     6 1
    16    11     6 1
    17    12     2 1
@<TRIPOS>SUBSTRUCTURE
     1 FM4         1 TEMP              0 ****  ****    0 ROOT
