@<TRIPOS>MOLECULE
FM4
   17    17     1     0     0
SMALL
bcc


@<TRIPOS>ATOM
      1 O          -0.2890   -0.7350    0.3370 os        1 FM4     -0.457600
      2 P           1.4690   -2.5250   -0.6790 p5        1 FM4      1.482600
      3 C1          0.9600   -0.8730   -0.3630 cx        1 FM4     -0.050100
      4 C2          0.8760   -0.1350    0.9240 cx        1 FM4      0.071100
      5 O2          4.6170   -2.8910   -3.2230 o         1 FM4     -0.968167
      6 P2          4.2030   -1.7040   -2.3920 p5        1 FM4      1.461900
      7 C3          1.3290   -0.6810    2.2360 c3        1 FM4     -0.110100
      8 O3          5.2060   -1.3060   -1.3410 o         1 FM4     -0.968167
      9 O4          3.6490   -0.5420   -3.1770 o         1 FM4     -0.968167
     10 O1P         0.3710   -3.1050   -1.5120 o         1 FM4     -0.938500
     11 O2P         2.7970   -2.2530   -1.4770 os        1 FM4     -0.823800
     12 O3P         1.6930   -3.1980    0.6430 o         1 FM4     -0.938500
     13 H1          1.0320   -0.2540   -1.2810 h1        1 FM4      0.081700
     14 H2          0.8430    0.9770    0.8970 h1        1 FM4      0.001700
     15 H3          1.5390   -1.7850    2.0970 hc        1 FM4      0.041033
     16 H3A         2.2630   -0.1650    2.5600 hc        1 FM4      0.041033
     17 H3B         0.5460   -0.5320    3.0190 hc        1 FM4      0.041033
@<TRIPOS>BOND
     1    1    3 1   
     2    1    4 1   
     3    2    3 1   
     4    2   10 1   
     5    2   11 1   
     6    2   12 1   
     7    3    4 1   
     8    3   13 1   
     9    4    7 1   
    10    4   14 1   
    11    5    6 1   
    12    6    8 1   
    13    6    9 1   
    14    6   11 1   
    15    7   15 1   
    16    7   16 1   
    17    7   17 1   
@<TRIPOS>SUBSTRUCTURE
     1 FM4         1 TEMP              0 ****  ****    0 ROOT
