@<TRIPOS>MOLECULE
FM5
   32    32     1     0     0
SMALL
bcc


@<TRIPOS>ATOM
      1 Cl2          0.0000     0.0000     0.0000 cl         1 FM5      -0.128400
      2 C9           1.7370     0.0000     0.0000 ca         1 FM5      -0.093600
      3 C10          2.4280     0.0000     1.1990 ca         1 FM5      -0.107000
      4 C11          3.8110     0.0000     1.1980 ca         1 FM5      -0.125000
      5 C8           2.4300    -0.0050    -1.1980 ca         1 FM5      -0.006600
      6 Cl1          1.5630    -0.0110    -2.7020 cl         1 FM5      -0.107400
      7 C7           3.8130    -0.0040    -1.1960 ca         1 FM5      -0.096000
      8 C6           4.5030     0.0020     0.0020 ca         1 FM5       0.082700
      9 C4           6.0090     0.0030     0.0030 c3         1 FM5      -0.002600
     10 PA1          6.6190    -1.6570    -0.4420 p5         1 FM5       0.431700
     11 OP1          6.1950    -1.9950    -1.9580 o          1 FM5      -0.718500
     12 OP2          8.2240    -1.6910    -0.3130 o          1 FM5      -0.718500
     13 OP3          6.0290    -2.6600     0.4720 o          1 FM5      -0.718500
     14 C3           6.5190     1.0230    -1.0160 c3         1 FM5       0.008600
     15 C2           8.0400     1.1410    -0.9030 c3         1 FM5      -0.021000
     16 N1           8.5130     2.2220    -1.7720 n          1 FM5       0.018700
     17 O2           9.1650     1.9170    -2.9910 oh         1 FM5      -0.475100
     18 C1           8.3270     3.5070    -1.4110 c          1 FM5       0.564100
     19 O1           7.7680     3.7690    -0.3680 o          1 FM5      -0.670100
     20 C5           8.8130     4.6190    -2.3050 c3         1 FM5      -0.072100
     21 H10          1.8870    -0.0010     2.1370 ha         1 FM5       0.082000
     22 H11          4.3520     0.0030     2.1360 ha         1 FM5       0.104000
     23 H7           4.3560    -0.0060    -2.1330 ha         1 FM5       0.155000
     24 H4           6.3700     0.2680     0.9890 hc         1 FM5       0.027700
     25 H31C         6.0670     1.9880    -0.8190 hc         1 FM5       0.004200
     26 H32C         6.2560     0.6980    -2.0160 hc         1 FM5       0.004200
     27 H21C         8.4980     0.2080    -1.2060 h1         1 FM5       0.081700
     28 H22C         8.3100     1.3600     0.1230 h1         1 FM5       0.081700
     29 H51C         8.5490     5.5750    -1.8690 hc         1 FM5       0.007700
     30 H52C         9.8890     4.5540    -2.4090 hc         1 FM5       0.007700
     31 H53C         8.3500     4.5260    -3.2800 hc         1 FM5       0.007700
     32 HO2C        10.0180     1.5580    -2.8100 ho         1 FM5       0.389000
@<TRIPOS>BOND
     1     1     2 1   
     2     2     3 ar  
     3     2     5 ar  
     4     3     4 ar  
     5     3    21 1   
     6     4     8 ar  
     7     4    22 1   
     8     5     6 1   
     9     5     7 ar  
    10     7     8 ar  
    11     7    23 1   
    12     8     9 1   
    13     9    10 1   
    14     9    14 1   
    15     9    24 1   
    16    10    11 1   
    17    10    12 1   
    18    10    13 1   
    19    14    15 1   
    20    14    25 1   
    21    14    26 1   
    22    15    16 1   
    23    15    27 1   
    24    15    28 1   
    25    16    17 1   
    26    16    18 1   
    27    17    32 1   
    28    18    19 2   
    29    18    20 1   
    30    20    29 1   
    31    20    30 1   
    32    20    31 1   
@<TRIPOS>SUBSTRUCTURE
     1 FM5         1 TEMP              0 ****  ****    0 ROOT
