@<TRIPOS>MOLECULE
molecule
   32    32     1     0     0
SMALL
bcc


@<TRIPOS>ATOM
      1 Cl2          0.0000     0.0000     0.0000 cl         1 FM5      -0.181400
      2 C9           1.7370     0.0000     0.0000 ca         1 FM5      -0.015600
      3 C10          2.4280     0.0000     1.1990 ca         1 FM5      -0.131000
      4 C11          3.8110     0.0000     1.1980 ca         1 FM5      -0.123000
      5 C8           2.4300    -0.0050    -1.1980 ca         1 FM5       0.037400
      6 Cl1          1.5630    -0.0110    -2.7020 cl         1 FM5      -0.158400
      7 C7           3.8130    -0.0040    -1.1960 ca         1 FM5      -0.093000
      8 C6           4.5030     0.0020     0.0020 ca         1 FM5       0.052700
      9 C4           6.0090     0.0030     0.0030 c3         1 FM5      -0.174600
     10 PA1          6.6190    -1.6570    -0.4420 p5         1 FM5       1.012700
     11 OP1          6.1950    -1.9950    -1.9580 o          1 FM5      -0.888500
     12 OP2          8.2240    -1.6910    -0.3130 o          1 FM5      -0.888500
     13 OP3          6.0290    -2.6600     0.4720 o          1 FM5      -0.888500
     14 C3           6.5190     1.0230    -1.0160 c3         1 FM5      -0.055400
     15 C2           8.0400     1.1410    -0.9030 c3         1 FM5       0.084000
     16 N1           8.5130     2.2220    -1.7720 n          1 FM5      -0.343300
     17 O2           9.1650     1.9170    -2.9910 oh         1 FM5      -0.404100
     18 C1           8.3270     3.5070    -1.4110 c          1 FM5       0.660100
     19 O1           7.7680     3.7690    -0.3680 o          1 FM5      -0.622100
     20 C5           8.8130     4.6190    -2.3050 c3         1 FM5      -0.170100
     21 H10          1.8870    -0.0010     2.1370 ha         1 FM5       0.112000
     22 H11          4.3520     0.0030     2.1360 ha         1 FM5       0.134000
     23 H7           4.3560    -0.0060    -2.1330 ha         1 FM5       0.185000
     24 H4           6.3700     0.2680     0.9890 hc         1 FM5       0.052700
     25 H31C         6.0670     1.9880    -0.8190 hc         1 FM5       0.035200
     26 H32C         6.2560     0.6980    -2.0160 hc         1 FM5       0.035200
     27 H21C         8.4980     0.2080    -1.2060 h1         1 FM5       0.105200
     28 H22C         8.3100     1.3600     0.1230 h1         1 FM5       0.105200
     29 H51C         8.5490     5.5750    -1.8690 hc         1 FM5       0.044700
     30 H52C         9.8890     4.5540    -2.4090 hc         1 FM5       0.044700
     31 H53C         8.3500     4.5260    -3.2800 hc         1 FM5       0.044700
     32 HO2C        10.0180     1.5580    -2.8100 ho         1 FM5       0.393000
@<TRIPOS>BOND
     1     1     2 1
     2     2     3 ar
     3     2     5 ar
     4     3     4 ar
     5     4     8 ar
     6     5     6 1
     7     5     7 ar
     8     7     8 ar
     9     8     9 1
    10     9    10 1
    11     9    14 1
    12    10    11 1
    13    10    12 1
    14    10    13 1
    15    14    15 1
    16    15    16 1
    17    16    17 1
    18    16    18 1
    19    18    19 2
    20    18    20 1
    21     3    21 1
    22     4    22 1
    23     7    23 1
    24     9    24 1
    25    14    25 1
    26    14    26 1
    27    15    27 1
    28    15    28 1
    29    20    29 1
    30    20    30 1
    31    20    31 1
    32    17    32 1
@<TRIPOS>SUBSTRUCTURE
     1 FM5         1 TEMP              0 ****  ****    0 ROOT
