@<TRIPOS>MOLECULE
FM6
   39    40     1     0     0
SMALL
bcc


@<TRIPOS>ATOM
      1 C7           0.0000     0.0000     0.0000 ca         1 FM6      -0.124000
      2 C8           1.3830     0.0000     0.0000 ca         1 FM6      -0.006600
      3 Cl1          2.2520     0.0010    -1.5020 cl         1 FM6      -0.115400
      4 C9           2.0740     0.0000     1.2000 ca         1 FM6      -0.091600
      5 Cl2          3.8100     0.0010     1.2020 cl         1 FM6      -0.124400
      6 C10          1.3800    -0.0000     2.3970 ca         1 FM6      -0.104000
      7 C11         -0.0020     0.0000     2.3940 ca         1 FM6      -0.096000
      8 C6          -0.6910     0.0000     1.1960 ca         1 FM6       0.081700
      9 C4          -2.1990    -0.0000     1.1960 c3         1 FM6      -0.003600
     10 PA1         -2.8070    -1.6600     1.6400 p5         1 FM6       0.432700
     11 OP1         -2.4120    -1.9860     3.1660 o          1 FM6      -0.719167
     12 OP3         -4.4080    -1.7050     1.4780 o          1 FM6      -0.719167
     13 OP2         -2.1920    -2.6670     0.7450 o          1 FM6      -0.719167
     14 C3          -2.7090     1.0200     2.2160 c3         1 FM6       0.009600
     15 C2          -4.2330     1.1180     2.1210 c3         1 FM6      -0.030000
     16 N1          -4.7090     2.1910     2.9960 n          1 FM6       0.034700
     17 O2          -5.3430     1.8760     4.2220 oh         1 FM6      -0.492100
     18 C1          -4.5440     3.4800     2.6340 c          1 FM6       0.584700
     19 O1          -4.0480     3.7490     1.5580 o          1 FM6      -0.664100
     20 C12         -4.9650     4.5640     3.5460 ca         1 FM6      -0.110600
     21 C17         -4.2030     5.7280     3.6500 ca         1 FM6      -0.059500
     22 C16         -4.6030     6.7360     4.5020 ca         1 FM6      -0.128500
     23 C15         -5.7560     6.5950     5.2540 ca         1 FM6      -0.114000
     24 C14         -6.5160     5.4430     5.1560 ca         1 FM6      -0.128500
     25 C13         -6.1310     4.4300     4.3020 ca         1 FM6      -0.059500
     26 H7          -0.5410    -0.0000    -0.9380 ha         1 FM6       0.116000
     27 H10          1.9200    -0.0000     3.3360 ha         1 FM6       0.087000
     28 H11         -0.5450     0.0000     3.3320 ha         1 FM6       0.144000
     29 H4          -2.5590     0.2650     0.2090 hc         1 FM6       0.028700
     30 H31C        -2.2710     1.9890     2.0080 hc         1 FM6       0.003200
     31 H32C        -2.4290     0.7040     3.2140 hc         1 FM6       0.003200
     32 H21C        -4.6750     0.1780     2.4290 h1         1 FM6       0.084200
     33 H22C        -4.5180     1.3330     1.0980 h1         1 FM6       0.084200
     34 H17         -3.3000     5.8400     3.0630 ha         1 FM6       0.120000
     35 H13         -6.7270     3.5280     4.2260 ha         1 FM6       0.120000
     36 H16         -4.0120     7.6410     4.5840 ha         1 FM6       0.090000
     37 H15         -6.0640     7.3890     5.9230 ha         1 FM6       0.084000
     38 H14         -7.4190     5.3400     5.7450 ha         1 FM6       0.090000
     39 H2O         -5.9850     1.2000     4.0800 ho         1 FM6       0.412000
@<TRIPOS>BOND
     1     1     2 ar  
     2     1     8 ar  
     3     1    26 1   
     4     2     3 1   
     5     2     4 ar  
     6     4     5 1   
     7     4     6 ar  
     8     6     7 ar  
     9     6    27 1   
    10     7     8 ar  
    11     7    28 1   
    12     8     9 1   
    13     9    10 1   
    14     9    14 1   
    15     9    29 1   
    16    10    11 1   
    17    10    12 1   
    18    10    13 1   
    19    14    15 1   
    20    14    30 1   
    21    14    31 1   
    22    15    16 1   
    23    15    32 1   
    24    15    33 1   
    25    16    17 1   
    26    16    18 1   
    27    17    39 1   
    28    18    19 2   
    29    18    20 1   
    30    20    21 ar  
    31    20    25 ar  
    32    21    22 ar  
    33    21    34 1   
    34    22    23 ar  
    35    22    36 1   
    36    23    24 ar  
    37    23    37 1   
    38    24    25 ar  
    39    24    38 1   
    40    25    35 1   
@<TRIPOS>SUBSTRUCTURE
     1 FM6         1 TEMP              0 ****  ****    0 ROOT
