@<TRIPOS>MOLECULE
molecule
   54    56     1     0     0
SMALL
bcc


@<TRIPOS>ATOM
      1 F1           0.0000     0.0000     0.0000 f          1 FM7      -0.226300
      2 C3           4.4350     6.6640     2.5720 c3         1 FM7      -0.060400
      3 C30          1.3980     0.0000     0.0000 c3         1 FM7       0.670200
      4 F2           1.8650     0.0000     1.3190 f          1 FM7      -0.226300
      5 F3           1.8650    -1.1430    -0.6590 f          1 FM7      -0.226300
      6 C20          1.9010     1.2290    -0.7120 ca         1 FM7      -0.134300
      7 C21          1.0030     2.1400    -1.2370 ca         1 FM7      -0.147000
      8 C22          1.4600     3.2700    -1.8900 ca         1 FM7      -0.095000
      9 C23          2.8160     3.4930    -2.0190 ca         1 FM7      -0.177000
     10 C19          3.2590     1.4490    -0.8320 ca         1 FM7      -0.139000
     11 C18          3.7220     2.5810    -1.4930 ca         1 FM7       0.218600
     12 N2           5.0950     2.8040    -1.6210 nu         1 FM7      -0.680000
     13 C13          5.5580     3.9980    -2.1590 ca         1 FM7       0.180600
     14 C14          6.1880     4.0100    -3.3970 ca         1 FM7      -0.166000
     15 C15          6.6470     5.1970    -3.9300 ca         1 FM7      -0.121000
     16 C16          6.4830     6.3850    -3.2360 ca         1 FM7      -0.156000
     17 C17          5.8600     6.3960    -2.0080 ca         1 FM7      -0.063000
     18 C12          5.3860     5.2020    -1.4580 ca         1 FM7      -0.131600
     19 C4           4.7130     5.2060    -0.1450 c          1 FM7       0.683700
     20 O1           4.8550     4.2660     0.6140 o          1 FM7      -0.568100
     21 N1           3.9410     6.2500     0.2120 n          1 FM7      -0.350300
     22 O2           3.6970     7.2990    -0.7070 oh         1 FM7      -0.415100
     23 C2           3.3530     6.3010     1.5530 c3         1 FM7       0.090000
     24 C1           3.7980     6.8420     3.9520 c3         1 FM7      -0.156600
     25 PA1          5.0650     7.3980     5.1390 p5         1 FM7       0.999700
     26 OP3          4.4270     7.4570     6.6160 o          1 FM7      -0.886500
     27 OP2          6.1990     6.4470     5.1300 o          1 FM7      -0.886500
     28 OP1          5.5880     8.8620     4.7200 o          1 FM7      -0.886500
     29 C6           3.2200     5.5280     4.4110 ca         1 FM7       0.033700
     30 C11          1.9580     5.4880     4.9750 ca         1 FM7      -0.127000
     31 C10          1.4270     4.2840     5.3960 ca         1 FM7      -0.131000
     32 C9           2.1580     3.1180     5.2550 ca         1 FM7      -0.012600
     33 Cl2          1.4910     1.6050     5.7850 cl         1 FM7      -0.176400
     34 C8           3.4210     3.1580     4.6900 ca         1 FM7       0.042400
     35 Cl1          4.3400     1.6970     4.5120 cl         1 FM7      -0.151400
     36 C7           3.9500     4.3640     4.2640 ca         1 FM7      -0.090000
     37 H31C         4.9150     7.5880     2.2740 hc         1 FM7       0.074200
     38 H32C         5.1720     5.8710     2.6130 hc         1 FM7       0.074200
     39 H21C         2.9340     5.3330     1.8000 h1         1 FM7       0.052700
     40 H22C         2.5700     7.0500     1.5760 h1         1 FM7       0.052700
     41 H1           3.0100     7.5830     3.8920 hc         1 FM7       0.046700
     42 H21         -0.0620     1.9670    -1.1380 ha         1 FM7       0.136000
     43 H19          3.9620     0.7360    -0.4200 ha         1 FM7       0.145000
     44 H22          0.7530     3.9810    -2.3010 ha         1 FM7       0.126000
     45 H23          3.1740     4.3770    -2.5330 ha         1 FM7       0.143000
     46 H2           5.7460     2.1040    -1.3250 hn         1 FM7       0.456800
     47 H14          6.3200     3.0850    -3.9450 ha         1 FM7       0.125000
     48 H15          7.1370     5.2000    -4.8950 ha         1 FM7       0.116000
     49 H16          6.8490     7.3120    -3.6630 ha         1 FM7       0.125000
     50 H17          5.7340     7.3290    -1.4720 ha         1 FM7       0.172000
     51 HA           2.7710     7.4750    -0.7460 ho         1 FM7       0.393000
     52 H11          1.3860     6.4010     5.0860 ha         1 FM7       0.132000
     53 H7           4.9380     4.3950     3.8220 ha         1 FM7       0.187000
     54 H10          0.4380     4.2530     5.8380 ha         1 FM7       0.112000
@<TRIPOS>BOND
     1     1     3 1
     2     2    23 1
     3     2    24 1
     4     3     4 1
     5     3     5 1
     6     3     6 1
     7     6     7 ar
     8     6    10 ar
     9     7     8 ar
    10     8     9 ar
    11     9    11 ar
    12    10    11 ar
    13    11    12 1
    14    12    13 1
    15    13    14 ar
    16    13    18 ar
    17    14    15 ar
    18    15    16 ar
    19    16    17 ar
    20    17    18 ar
    21    18    19 1
    22    19    20 2
    23    19    21 1
    24    21    22 1
    25    21    23 1
    26    24    25 1
    27    24    29 1
    28    25    26 1
    29    25    27 1
    30    25    28 1
    31    29    30 ar
    32    29    36 ar
    33    30    31 ar
    34    31    32 ar
    35    32    33 1
    36    32    34 ar
    37    34    35 1
    38    34    36 ar
    39     2    37 1
    40     2    38 1
    41    23    39 1
    42    23    40 1
    43    24    41 1
    44     7    42 1
    45    10    43 1
    46     8    44 1
    47     9    45 1
    48    12    46 1
    49    14    47 1
    50    15    48 1
    51    16    49 1
    52    17    50 1
    53    22    51 1
    54    30    52 1
    55    36    53 1
    56    31    54 1
@<TRIPOS>SUBSTRUCTURE
     1 FM7         1 TEMP              0 ****  ****    0 ROOT
