@<TRIPOS>MOLECULE
molecule
   48    50     1     0     0
SMALL
bcc


@<TRIPOS>ATOM
      1 C1           0.0000     0.0000     0.0000 c          1 FM8       0.699700
      2 N1           1.3480     0.0000     0.0000 n          1 FM8      -0.336300
      3 O1          -0.6080     0.0000     1.0530 o          1 FM8      -0.594100
      4 Cl1          2.5770     2.9840     6.6550 cl         1 FM8      -0.170400
      5 C2           2.0800     0.1150     1.2640 c3         1 FM8       0.091000
      6 N2          -1.7070     2.8850    -0.2410 na         1 FM8      -0.046400
      7 O2           2.0560    -0.1110    -1.2210 oh         1 FM8      -0.417100
      8 Cl2         -0.5320     2.7250     6.7650 cl         1 FM8      -0.178400
      9 C3           2.0120    -1.2160     2.0150 c3         1 FM8      -0.061400
     10 N3          -0.3180     3.0940    -0.2070 nc         1 FM8      -0.516800
     11 C4           2.6790    -1.0630     3.3840 c3         1 FM8      -0.157600
     12 N4          -1.3170     4.9960    -0.2180 nd         1 FM8      -0.785000
     13 C6           1.8750    -0.1130     4.2320 ca         1 FM8       0.035700
     14 C7           2.5140     0.8730     4.9610 ca         1 FM8      -0.122000
     15 C8           1.7760     1.7450     5.7390 ca         1 FM8       0.033400
     16 C9           0.3960     1.6310     5.7890 ca         1 FM8      -0.012600
     17 C10         -0.2420     0.6440     5.0580 ca         1 FM8      -0.122000
     18 C11          0.4970    -0.2240     4.2760 ca         1 FM8      -0.090000
     19 C12         -0.7390     0.0040    -1.2800 ca         1 FM8      -0.083600
     20 C13         -1.8980     0.7710    -1.4170 ca         1 FM8      -0.073300
     21 C14         -2.5830     0.7720    -2.6150 ca         1 FM8      -0.135000
     22 C15         -2.1230     0.0160    -3.6780 ca         1 FM8      -0.134000
     23 C16         -0.9760    -0.7460    -3.5490 ca         1 FM8      -0.139000
     24 C17         -0.2780    -0.7510    -2.3590 ca         1 FM8      -0.076000
     25 C18         -2.4010     1.5940    -0.2590 c3         1 FM8       0.094600
     26 C19         -0.1320     4.3870    -0.1950 cd         1 FM8       0.549900
     27 C20         -2.2730     4.1040    -0.2470 cc         1 FM8       0.428400
     28 PA1          2.7610    -2.6890     4.2040 p5         1 FM8       1.000700
     29 OP1          1.4050    -3.2770     4.2700 o          1 FM8      -0.886833
     30 OP2          3.7290    -3.6650     3.3660 o          1 FM8      -0.886833
     31 OP3          3.3420    -2.5090     5.6950 o          1 FM8      -0.886833
     32 H2           3.1150     0.3620     1.0600 h1         1 FM8       0.052700
     33 H2A          1.6350     0.8950     1.8690 h1         1 FM8       0.052700
     34 HO2          2.8310     0.4250    -1.1850 ho         1 FM8       0.400000
     35 H3           2.5280    -1.9790     1.4450 hc         1 FM8       0.073700
     36 H3A          0.9760    -1.5030     2.1490 hc         1 FM8       0.073700
     37 H4           3.6820    -0.6730     3.2560 hc         1 FM8       0.047700
     38 H7           3.5950     0.9420     4.9470 ha         1 FM8       0.145000
     39 H10         -1.3210     0.5570     5.0920 ha         1 FM8       0.120000
     40 H11         -0.0020    -0.9970     3.7050 ha         1 FM8       0.179000
     41 H14         -3.4940     1.3480    -2.7160 ha         1 FM8       0.117000
     42 H15         -2.6640     0.0210    -4.6160 ha         1 FM8       0.114000
     43 H16         -0.6290    -1.3450    -4.3820 ha         1 FM8       0.123000
     44 H17          0.5840    -1.3960    -2.2400 ha         1 FM8       0.167000
     45 H18         -2.2100     1.0680     0.6680 h1         1 FM8       0.092700
     46 H18A        -3.4660     1.7590    -0.3690 h1         1 FM8       0.092700
     47 H19          0.8310     4.8840    -0.1690 h5         1 FM8       0.072100
     48 H20         -3.3360     4.3110    -0.2700 h5         1 FM8       0.056100
@<TRIPOS>BOND
     1    19     1 1
     2     3     1 2
     3     1     2 1
     4     2     5 1
     5     2     7 1
     6    15     4 1
     7     5     9 1
     8     5    32 1
     9     5    33 1
    10    25     6 1
    11    10     6 1
    12     6    27 1
    13     7    34 1
    14     8    16 1
    15    11     9 1
    16     9    35 1
    17     9    36 1
    18    10    26 2
    19    13    11 1
    20    11    28 1
    21    11    37 1
    22    26    12 1
    23    27    12 2
    24    18    13 ar
    25    13    14 ar
    26    15    14 ar
    27    14    38 1
    28    16    15 ar
    29    17    16 ar
    30    17    18 ar
    31    17    39 1
    32    18    40 1
    33    24    19 ar
    34    19    20 ar
    35    21    20 ar
    36    20    25 1
    37    22    21 ar
    38    21    41 1
    39    23    22 ar
    40    22    42 1
    41    23    24 ar
    42    23    43 1
    43    24    44 1
    44    25    45 1
    45    25    46 1
    46    26    47 1
    47    27    48 1
    48    29    28 1
    49    31    28 1
    50    28    30 1
@<TRIPOS>SUBSTRUCTURE
     1 FM8         1 TEMP              0 ****  ****    0 ROOT
