@<TRIPOS>MOLECULE
FM9
   44    46     1     0     0
SMALL
bcc


@<TRIPOS>ATOM
      1 C1           0.0000     0.0000     0.0000 ca         1 FM9       0.678900
      2 N1           1.3180     0.0000     0.0000 nb         1 FM9      -0.709000
      3 S1          -2.7740    -0.0040     5.2320 ss         1 FM9      -0.246300
      4 O1          -2.7970    -0.1120     7.8260 o          1 FM9      -0.599100
      5 F1          -0.0060     0.4480    13.4390 f          1 FM9      -0.124900
      6 C10         -1.1900     0.1040     9.5060 ca         1 FM9      -0.171600
      7 C11         -0.0440     0.8340     9.8320 ca         1 FM9      -0.043500
      8 C12          0.3480     0.9450    11.1490 ca         1 FM9      -0.141500
      9 C13         -0.3940     0.3360    12.1490 ca         1 FM9       0.131900
     10 C14         -1.5320    -0.3900    11.8320 ca         1 FM9      -0.141500
     11 C15         -1.9320    -0.5080    10.5180 ca         1 FM9      -0.043500
     12 C16          4.1330     0.0000     2.3920 c3         1 FM9       0.124500
     13 C17          5.5180    -0.6100     2.1680 c3         1 FM9      -0.012100
     14 C18          4.2840     1.4370     2.8960 c3         1 FM9      -0.012100
     15 C2          -0.0860    -0.0060     2.3040 ca         1 FM9       0.428300
     16 N2          -0.6960    -0.0000     1.1170 nb         1 FM9      -0.687000
     17 C3           1.3070     0.0000     2.3480 ca         1 FM9      -0.413600
     18 N3          -0.3080    -0.0110     4.7600 nc         1 FM9      -0.612000
     19 C4           2.0030     0.0000     1.1410 ca         1 FM9       0.546200
     20 N4          -0.6970    -0.0150     7.1120 n          1 FM9      -0.020300
     21 N5           3.3900     0.0000     1.1290 nu         1 FM9      -0.495900
     22 C5          -0.8780    -0.0050     3.5560 cc         1 FM9       0.272300
     23 C6          -2.2250    -0.0020     3.5580 cd         1 FM9      -0.090400
     24 C7          -1.1020    -0.0110     5.7840 cd         1 FM9       0.430300
     25 C8          -1.6160    -0.0140     8.0980 c          1 FM9       0.585700
     26 C9           0.7310    -0.0190     7.4420 c3         1 FM9       0.033300
     27 H1          -0.5260     0.0020    -0.9470 h5         1 FM9      -0.004900
     28 H2           0.5370     1.3110     9.0520 ha         1 FM9       0.129000
     29 H3           1.2360     1.5110    11.4030 ha         1 FM9       0.124500
     30 H4          -2.1080    -0.8650    12.6170 ha         1 FM9       0.124500
     31 H5          -2.8220    -1.0750    10.2710 ha         1 FM9       0.129000
     32 H6           3.5880    -0.5950     3.1150 h1         1 FM9       0.041700
     33 H7           5.4110    -1.6390     1.8480 hc         1 FM9       0.012033
     34 H8           6.0420    -0.0460     1.4060 hc         1 FM9       0.012033
     35 H9           6.0800    -0.5760     3.0940 hc         1 FM9       0.012033
     36 H10          3.3170     1.9260     2.8880 hc         1 FM9       0.012033
     37 H11          4.9660     1.9760     2.2500 hc         1 FM9       0.012033
     38 H12          4.6750     1.4260     3.9060 hc         1 FM9       0.012033
     39 H13          1.8340    -0.0020     3.2940 ha         1 FM9       0.149000
     40 H14          3.8830    -0.0090     0.2590 hn         1 FM9       0.301800
     41 H15         -2.8600     0.0020     2.6810 h4         1 FM9       0.177000
     42 H16          1.0810     1.0010     7.5450 h1         1 FM9       0.030700
     43 H17          1.2840    -0.5120     6.6520 h1         1 FM9       0.030700
     44 H18          0.8840    -0.5490     8.3750 h1         1 FM9       0.030700
@<TRIPOS>BOND
     1     1     2 ar  
     2     1    16 ar  
     3     1    27 1   
     4     2    19 ar  
     5     3    23 1   
     6     3    24 1   
     7     4    25 2   
     8     5     9 1   
     9     6     7 ar  
    10     6    11 ar  
    11     6    25 1   
    12     7     8 ar  
    13     7    28 1   
    14     8     9 ar  
    15     8    29 1   
    16     9    10 ar  
    17    10    11 ar  
    18    10    30 1   
    19    11    31 1   
    20    12    13 1   
    21    12    14 1   
    22    12    21 1   
    23    12    32 1   
    24    13    33 1   
    25    13    34 1   
    26    13    35 1   
    27    14    36 1   
    28    14    37 1   
    29    14    38 1   
    30    15    16 ar  
    31    15    17 ar  
    32    15    22 1   
    33    17    19 ar  
    34    17    39 1   
    35    18    22 1   
    36    18    24 2   
    37    19    21 1   
    38    20    24 1   
    39    20    25 1   
    40    20    26 1   
    41    21    40 1   
    42    22    23 2   
    43    23    41 1   
    44    26    42 1   
    45    26    43 1   
    46    26    44 1   
@<TRIPOS>SUBSTRUCTURE
     1 FM9         1 TEMP              0 ****  ****    0 ROOT
