@<TRIPOS>MOLECULE
molecule
   44    46     1     0     0
SMALL
bcc


@<TRIPOS>ATOM
      1 C1           0.0000     0.0000     0.0000 ca         1 FM9       0.723900
      2 N1           1.3180     0.0000     0.0000 nb         1 FM9      -0.816000
      3 S1          -2.7740    -0.0040     5.2320 ss         1 FM9      -0.119300
      4 O1          -2.7970    -0.1120     7.8260 o          1 FM9      -0.578100
      5 F1          -0.0060     0.4480    13.4390 f          1 FM9      -0.132900
      6 C10         -1.1900     0.1040     9.5060 ca         1 FM9      -0.165600
      7 C11         -0.0440     0.8340     9.8320 ca         1 FM9      -0.063500
      8 C12          0.3480     0.9450    11.1490 ca         1 FM9      -0.179000
      9 C13         -0.3940     0.3360    12.1490 ca         1 FM9       0.161900
     10 C14         -1.5320    -0.3900    11.8320 ca         1 FM9      -0.179000
     11 C15         -1.9320    -0.5080    10.5180 ca         1 FM9      -0.063500
     12 C16          4.1330     0.0000     2.3920 c3         1 FM9       0.236500
     13 C17          5.5180    -0.6100     2.1680 c3         1 FM9      -0.109600
     14 C18          4.2840     1.4370     2.8960 c3         1 FM9      -0.109600
     15 C2          -0.0860    -0.0060     2.3040 ca         1 FM9       0.468300
     16 N2          -0.6960    -0.0000     1.1170 nb         1 FM9      -0.788000
     17 C3           1.3070     0.0000     2.3480 ca         1 FM9      -0.418600
     18 N3          -0.3080    -0.0110     4.7600 nc         1 FM9      -0.733000
     19 C4           2.0030     0.0000     1.1410 ca         1 FM9       0.725200
     20 N4          -0.6970    -0.0150     7.1120 n          1 FM9      -0.425300
     21 N5           3.3900     0.0000     1.1290 nu         1 FM9      -0.907900
     22 C5          -0.8780    -0.0050     3.5560 cc         1 FM9       0.320300
     23 C6          -2.2250    -0.0020     3.5580 cd         1 FM9      -0.174400
     24 C7          -1.1020    -0.0110     5.7840 cd         1 FM9       0.570300
     25 C8          -1.6160    -0.0140     8.0980 c          1 FM9       0.678700
     26 C9           0.7310    -0.0190     7.4420 c3         1 FM9       0.087300
     27 H1          -0.5260     0.0020    -0.9470 h5         1 FM9       0.057100
     28 H2           0.5370     1.3110     9.0520 ha         1 FM9       0.157000
     29 H3           1.2360     1.5110    11.4030 ha         1 FM9       0.153500
     30 H4          -2.1080    -0.8650    12.6170 ha         1 FM9       0.153500
     31 H5          -2.8220    -1.0750    10.2710 ha         1 FM9       0.157000
     32 H6           3.5880    -0.5950     3.1150 h1         1 FM9       0.062700
     33 H7           5.4110    -1.6390     1.8480 hc         1 FM9       0.044367
     34 H8           6.0420    -0.0460     1.4060 hc         1 FM9       0.044367
     35 H9           6.0800    -0.5760     3.0940 hc         1 FM9       0.044367
     36 H10          3.3170     1.9260     2.8880 hc         1 FM9       0.044367
     37 H11          4.9660     1.9760     2.2500 hc         1 FM9       0.044367
     38 H12          4.6750     1.4260     3.9060 hc         1 FM9       0.044367
     39 H13          1.8340    -0.0020     3.2940 ha         1 FM9       0.161000
     40 H14          3.8830    -0.0090     0.2590 hn         1 FM9       0.450800
     41 H15         -2.8600     0.0020     2.6810 h4         1 FM9       0.201000
     42 H16          1.0810     1.0010     7.5450 h1         1 FM9       0.057367
     43 H17          1.2840    -0.5120     6.6520 h1         1 FM9       0.057367
     44 H18          0.8840    -0.5490     8.3750 h1         1 FM9       0.057367
@<TRIPOS>BOND
     1    14    12 1
     2    13    12 1
     3    12    21 1
     4    21    19 1
     5     2    19 ar
     6     2     1 ar
     7    19    17 ar
     8     1    16 ar
     9    17    15 ar
    10    16    15 ar
    11    15    22 1
    12    22    18 1
    13    22    23 2
    14    18    24 2
    15    23     3 1
    16     4    25 2
    17    24     3 1
    18    24    20 1
    19    25    20 1
    20    25     6 1
    21    20    26 1
    22    11     6 ar
    23    11    10 ar
    24     6     7 ar
    25    10     9 ar
    26     7     8 ar
    27     9     8 ar
    28     9     5 1
    29     1    27 1
    30     7    28 1
    31     8    29 1
    32    10    30 1
    33    11    31 1
    34    12    32 1
    35    13    33 1
    36    13    34 1
    37    13    35 1
    38    14    36 1
    39    14    37 1
    40    14    38 1
    41    17    39 1
    42    21    40 1
    43    23    41 1
    44    26    42 1
    45    26    43 1
    46    26    44 1
@<TRIPOS>SUBSTRUCTURE
     1 FM9         1 TEMP              0 ****  ****    0 ROOT
