@<TRIPOS>MOLECULE
FMB
   31    33     1     0     0
SMALL
bcc


@<TRIPOS>ATOM
      1 N1         -0.1480    0.3010    0.3680 n         1 FMB     -0.484400
      2 C2          1.1820    0.7220    0.3210 cc        1 FMB      0.471800
      3 N3          2.0870    0.6010    1.2730 nd        1 FMB     -0.571100
      4 C4          1.6430   -0.0180    2.4260 cd        1 FMB      0.018100
      5 C5          0.2930   -0.4820    2.5800 cc        1 FMB     -0.219900
      6 C6         -0.6840   -0.3310    1.5080 c         1 FMB      0.730100
      7 O6         -1.8700   -0.6970    1.5370 o         1 FMB     -0.616500
      8 N7          0.2040   -1.0340    3.8520 na        1 FMB      0.039400
      9 N8          1.3610   -0.9660    4.4990 nc        1 FMB     -0.457800
     10 C9          2.2790   -0.3570    3.6860 cd        1 FMB      0.302600
     11 C1'         3.7070   -0.0860    4.0070 c3        1 FMB      0.088800
     12 C2'         3.8820    1.2690    4.7320 c3        1 FMB      0.088100
     13 O2'         4.9080    2.0340    4.1290 oh        1 FMB     -0.595800
     14 C3'         4.3450    0.9120    6.1640 c3        1 FMB      0.137100
     15 O3'         5.4780    1.6280    6.5850 oh        1 FMB     -0.575800
     16 C4'         4.5920   -0.6080    6.1380 c3        1 FMB      0.058100
     17 O4'         4.2660   -1.1100    4.8330 os        1 FMB     -0.407600
     18 C5'         3.7460   -1.3490    7.1730 c3        1 FMB      0.124400
     19 O5'         3.9680   -2.7410    7.1110 oh        1 FMB     -0.596800
     20 HN1        -0.7420    0.4400   -0.4180 hn        1 FMB      0.344500
     21 H2          1.4960    1.2100   -0.6280 h5        1 FMB      0.059800
     22 HN7        -0.5950   -1.4680    4.2610 hn        1 FMB      0.347700
     23 H1'         4.3030   -0.1150    3.0490 h1        1 FMB      0.098700
     24 H2'         2.9250    1.8530    4.7500 h1        1 FMB      0.066700
     25 HO2         4.5910    2.2910    3.2550 ho        1 FMB      0.421000
     26 H3'         3.5480    1.1810    6.9110 h1        1 FMB      0.091700
     27 HO3         6.1410    1.5870    5.8820 ho        1 FMB      0.423000
     28 H4'         5.6810   -0.8460    6.2890 h1        1 FMB      0.087700
     29 H5'1        4.0600   -1.0470    8.2070 h1        1 FMB      0.054700
     30 H5'2        2.6570   -1.1250    7.0190 h1        1 FMB      0.054700
     31 HO5         3.7880   -3.0150    6.2020 ho        1 FMB      0.415000
@<TRIPOS>BOND
     1    1    2 1
     2    1    6 1
     3    1   20 1
     4    2    3 2
     5    2   21 1
     6    3    4 1
     7    4    5 2
     8    4   10 1
     9    5    6 1
    10    5    8 1
    11    6    7 2
    12    8    9 1
    13    8   22 1
    14    9   10 2
    15   10   11 1
    16   11   12 1
    17   11   17 1
    18   11   23 1
    19   12   13 1
    20   12   14 1
    21   12   24 1
    22   13   25 1
    23   14   15 1
    24   14   16 1
    25   14   26 1
    26   15   27 1
    27   16   17 1
    28   16   18 1
    29   16   28 1
    30   18   19 1
    31   18   29 1
    32   18   30 1
    33   19   31 1
@<TRIPOS>SUBSTRUCTURE
     1 FMB         1 TEMP              0 ****  ****    0 ROOT
