@<TRIPOS>MOLECULE
molecule
   32    34     1     0     0
SMALL
bcc


@<TRIPOS>ATOM
      1 N1           0.0000     0.0000     0.0000 nb         1 FMC      -0.726000
      2 C2           1.3230     0.0000     0.0000 ca         1 FMC       0.653900
      3 N3           2.0290     0.0000     1.1070 nb         1 FMC      -0.684000
      4 C4           1.4230     0.0010     2.3010 ca         1 FMC       0.311000
      5 C5           0.0180     0.0000     2.3470 ca         1 FMC      -0.278800
      6 C6          -0.6880    -0.0000     1.1360 ca         1 FMC       0.702200
      7 N6          -2.0720    -0.0000     1.1230 nv         1 FMC      -1.082500
      8 N7          -0.3340     0.0000     3.6690 na         1 FMC      -0.029100
      9 N8           0.8420     0.0010     4.4310 nc         1 FMC      -0.467100
     10 C9           1.8770     0.0010     3.6370 cd         1 FMC       0.261300
     11 C1'          3.3180     0.0000     4.0760 c3         1 FMC       0.125800
     12 C2'          3.7110     1.4000     4.5860 c3         1 FMC       0.102100
     13 O2'          4.7810     1.9360     3.8060 oh         1 FMC      -0.570800
     14 C3'          4.1720     1.1570     6.0440 c3         1 FMC       0.100100
     15 O3'          5.3320     1.9350     6.3480 oh         1 FMC      -0.573800
     16 C4'          4.5100    -0.3560     6.0290 c3         1 FMC       0.136100
     17 O4'          3.4980    -0.9180     5.1670 os         1 FMC      -0.383600
     18 C5'          4.4060    -0.9450     7.4360 c3         1 FMC       0.148400
     19 O5'          4.8320    -2.3090     7.4160 oh         1 FMC      -0.597800
     20 H2           1.8440     0.0000    -0.9500 h5         1 FMC       0.065100
     21 HN7         -1.2680     0.0000     4.0300 hn         1 FMC       0.342700
     22 H5'          3.3780    -0.8930     7.7750 h1         1 FMC       0.030200
     23 H5'A         5.0370    -0.3800     8.1120 h1         1 FMC       0.030200
     24 H1'          3.9600    -0.2820     3.2500 h1         1 FMC       0.104700
     25 H2'          2.8530     2.0620     4.5680 h1         1 FMC       0.049700
     26 HO2'         4.5300     2.7770     3.4630 ho         1 FMC       0.405000
     27 H3'          3.3670     1.3630     6.7400 h1         1 FMC       0.052700
     28 HO3'         5.1000     2.6230     6.9490 ho         1 FMC       0.399000
     29 H4'          5.4960    -0.5190     5.6120 h1         1 FMC       0.089700
     30 HO5'         4.7820    -2.6670     8.2860 ho         1 FMC       0.402000
     31 HN6         -2.5720     0.8670     1.1000 hn         1 FMC       0.440800
     32 HN6A        -2.5720    -0.8670     1.1000 hn         1 FMC       0.440800
@<TRIPOS>BOND
     1     1     2 ar
     2     1     6 ar
     3     2     3 ar
     4     2    20 1
     5     3     4 ar
     6     4     5 ar
     7     4    10 1
     8     5     6 ar
     9     5     8 1
    10     6     7 1
    11     7    31 1
    12     7    32 1
    13     8     9 1
    14     8    21 1
    15     9    10 2
    16    10    11 1
    17    11    12 1
    18    11    17 1
    19    11    24 1
    20    12    13 1
    21    12    14 1
    22    12    25 1
    23    13    26 1
    24    14    15 1
    25    14    16 1
    26    14    27 1
    27    15    28 1
    28    16    17 1
    29    16    18 1
    30    16    29 1
    31    18    19 1
    32    18    22 1
    33    18    23 1
    34    19    30 1
@<TRIPOS>SUBSTRUCTURE
     1 FMC         1 TEMP              0 ****  ****    0 ROOT
