@<TRIPOS>MOLECULE
molecule
   49    51     1     0     0
SMALL
bcc


@<TRIPOS>ATOM
      1 F17          0.0000     0.0000     0.0000 f          1 FMD      -0.142900
      2 C1           1.3520     0.0000     0.0000 ca         1 FMD       0.158900
      3 C2           2.0500     0.0000     1.2100 ca         1 FMD      -0.019000
      4 C18          1.3410    -0.0000     2.4540 cg         1 FMD      -0.006000
      5 C19          0.7700    -0.0170     3.4790 c1         1 FMD      -0.267100
      6 C20          0.0650     0.4070     4.9720 c3         1 FMD       0.223200
      7 O27          0.8380     0.3530     6.0370 oh         1 FMD      -0.544800
      8 C23         -0.7660     1.8330     5.0790 c3         1 FMD       0.131500
      9 N28         -1.8970     1.4790     4.2890 nz         1 FMD      -0.810600
     10 C24         -1.0990     2.1320     6.2220 c3         1 FMD       0.143100
     11 O26         -1.8440     1.2570     6.6750 oh         1 FMD      -0.567800
     12 C25         -1.4560     3.4830     6.1230 c3         1 FMD      -0.202100
     13 C3           3.4530    -0.0060     1.1940 ca         1 FMD      -0.040800
     14 C4           4.1430    -0.0010    -0.0260 ca         1 FMD       0.034600
     15 N9           5.5060    -0.0020     0.2450 ns         1 FMD      -0.434100
     16 C8           5.7320    -0.0010     1.5700 c          1 FMD       0.717700
     17 O10          6.8280    -0.0020     2.1020 o          1 FMD      -0.617500
     18 C5           3.4250    -0.0000    -1.2150 ca         1 FMD      -0.122000
     19 C6           2.0440     0.0000    -1.1970 ca         1 FMD      -0.161000
     20 C7           4.4830    -0.0010     2.2500 cc         1 FMD      -0.250400
     21 C11          4.2760    -0.0010     3.6210 cf         1 FMD       0.109800
     22 C12          5.3610     0.1610     4.4940 cd         1 FMD      -0.164100
     23 C13          5.5120    -0.4320     5.7470 cc         1 FMD       0.127100
     24 O21          4.6410    -1.2790     6.3500 os         1 FMD      -0.285900
     25 C22          5.2140    -1.6350     7.6090 c3         1 FMD       0.084700
     26 C14          6.7390     0.0060     6.2610 cc         1 FMD      -0.293000
     27 C15          7.3010     0.8400     5.3530 cd         1 FMD      -0.098300
     28 N16          6.4790     0.9470     4.2780 na         1 FMD      -0.116100
     29 H20         -0.7170    -0.3240     5.1360 h1         1 FMD       0.031700
     30 H27          1.0170    -0.5670     6.1380 ho         1 FMD       0.460000
     31 H23          0.0030     2.3330     4.5030 hx         1 FMD       0.149700
     32 H281        -2.7830     1.2060     4.6650 hn         1 FMD       0.455467
     33 H282        -1.7530     1.0210     3.4110 hn         1 FMD       0.455467
     34 H24         -0.1250     2.2070     6.6920 h1         1 FMD       0.086700
     35 H26         -1.8040     1.3560     7.6120 ho         1 FMD       0.463000
     36 H251        -1.8010     3.6920     7.1280 hc         1 FMD       0.071033
     37 H252        -2.4610     3.3040     5.7610 hc         1 FMD       0.071033
     38 H253        -0.7720     4.2400     5.7580 hc         1 FMD       0.071033
     39 HN9          6.1580     0.3010    -0.4510 hn         1 FMD       0.343500
     40 HC5          3.7880     0.5870    -2.0500 ha         1 FMD       0.144000
     41 HC6          1.9950     0.4840    -2.1650 ha         1 FMD       0.177000
     42 H11          3.2070     0.0770     3.7780 ha         1 FMD       0.149000
     43 H221         5.8500    -2.5020     7.4720 h1         1 FMD       0.053033
     44 H222         4.4790    -1.9110     8.3550 h1         1 FMD       0.053033
     45 H223         6.0380    -0.9850     7.8740 h1         1 FMD       0.053033
     46 H14          7.2120     0.0860     7.2330 ha         1 FMD       0.166000
     47 H15          8.3380     1.1460     5.3000 h4         1 FMD       0.182000
     48 H16          6.7130     1.5880     3.5450 hn         1 FMD       0.320700
     49 H283        -2.0230     2.4120     3.9490 hn         1 FMD       0.455467
@<TRIPOS>BOND
     1     1     2 1
     2     2     3 ar
     3     2    19 ar
     4     3     4 1
     5     3    13 ar
     6     4     5 3
     7     5     6 1
     8     6     7 1
     9     6     8 1
    10     6    29 1
    11     7    30 1
    12     8     9 1
    13     8    10 1
    14     8    31 1
    15     9    32 1
    16     9    33 1
    17    10    11 1
    18    10    12 1
    19    10    34 1
    20    11    35 1
    21    12    36 1
    22    12    37 1
    23    12    38 1
    24    13    14 ar
    25    13    20 1
    26    14    15 1
    27    14    18 ar
    28    15    16 1
    29    15    39 1
    30    16    17 2
    31    16    20 1
    32    18    19 ar
    33    18    40 1
    34    19    41 1
    35    20    21 2
    36    21    22 1
    37    21    42 1
    38    22    23 2
    39    22    28 1
    40    23    24 1
    41    23    26 1
    42    24    25 1
    43    25    43 1
    44    25    44 1
    45    25    45 1
    46    26    27 2
    47    26    46 1
    48    27    28 1
    49    27    47 1
    50    28    48 1
    51    49     9 1
@<TRIPOS>SUBSTRUCTURE
     1 FMD         1 TEMP              0 ****  ****    0 ROOT
