@<TRIPOS>MOLECULE
FMD
   49    51     1     0     0
SMALL
bcc


@<TRIPOS>ATOM
      1 F17          0.0000     0.0000     0.0000 f          1 FMD      -0.113900
      2 C1           1.3520     0.0000     0.0000 ca         1 FMD       0.183900
      3 C2           2.0500     0.0000     1.2100 ca         1 FMD       0.029000
      4 C18          1.3410    -0.0000     2.4540 cg         1 FMD      -0.023000
      5 C19          0.7550    -0.0200     3.4700 c1         1 FMD      -0.259100
      6 C20          0.1340     0.4800     4.8760 c3         1 FMD       0.553200
      7 O27         -0.0670    -0.4080     5.4730 oh         1 FMD      -0.493800
      8 C23          1.1030     1.5220     5.4560 c3         1 FMD      -0.237500
      9 N28          2.5080     1.2370     5.5970 nz         1 FMD      -0.124600
     10 C24          0.8570     2.8240     4.6520 c3         1 FMD       0.237100
     11 O26          2.0070     3.5130     4.4910 oh         1 FMD      -0.690800
     12 C25          0.1720     4.0850     5.8360 c3         1 FMD      -0.092100
     13 C3           3.4530    -0.0060     1.1940 ca         1 FMD      -0.067800
     14 C4           4.1430    -0.0010    -0.0260 ca         1 FMD      -0.143400
     15 N9           5.5060    -0.0020     0.2450 ns         1 FMD       0.028900
     16 C8           5.7320    -0.0010     1.5700 c          1 FMD       0.643700
     17 O10          6.8280    -0.0020     2.1020 o          1 FMD      -0.681500
     18 C5           3.4250    -0.0000    -1.2150 ca         1 FMD      -0.102000
     19 C6           2.0440     0.0000    -1.1970 ca         1 FMD      -0.173000
     20 C7           4.4830    -0.0010     2.2500 cc         1 FMD      -0.206400
     21 C11          4.2760    -0.0010     3.6210 cf         1 FMD       0.092800
     22 C12          5.3610     0.1610     4.4940 cd         1 FMD      -0.438100
     23 C13          5.5120    -0.4320     5.7470 cc         1 FMD       0.068100
     24 O21          4.6410    -1.2790     6.3500 os         1 FMD      -0.329900
     25 C22          5.2140    -1.6350     7.6090 c3         1 FMD       0.210700
     26 C14          6.7390     0.0060     6.2610 cc         1 FMD      -0.277000
     27 C15          7.3010     0.8400     5.3530 cd         1 FMD      -0.217300
     28 N16          6.4790     0.9470     4.2780 na         1 FMD       0.433900
     29 H20         -0.7390     1.0950     4.6970 h1         1 FMD      -0.038300
     30 H27         -0.5800    -0.4520     6.2630 ho         1 FMD       0.456000
     31 H23          0.9000     1.7860     6.4870 hx         1 FMD       0.066700
     32 H281         2.5930     0.2430     5.6830 hn         1 FMD       0.297133
     33 H282         3.0630     1.9920     5.9470 hn         1 FMD       0.297133
     34 H24          0.0450     2.8730     3.9370 h1         1 FMD       0.077700
     35 H26          2.1810     4.4190     4.2960 ho         1 FMD       0.503000
     36 H251         0.6530     4.1680     6.8030 hc         1 FMD       0.019700
     37 H252        -0.2340     4.9320     5.2970 hc         1 FMD       0.019700
     38 H253        -0.7980     3.6220     5.9770 hc         1 FMD       0.019700
     39 HN9          6.0690    -0.1750    -0.5640 hn         1 FMD       0.192500
     40 HC5          3.8820     0.4070    -2.1090 ha         1 FMD       0.115000
     41 HC6          2.3860     0.6420    -2.0000 ha         1 FMD       0.201000
     42 H11          3.2670    -0.1420     3.9890 ha         1 FMD       0.088000
     43 H221         6.0600    -2.2520     7.3300 h1         1 FMD       0.025033
     44 H222         4.3730    -2.0930     8.1150 h1         1 FMD       0.025033
     45 H223         5.5530    -0.6250     7.8010 h1         1 FMD       0.025033
     46 H14          6.9250    -0.2470     7.2980 ha         1 FMD       0.160000
     47 H15          8.3390     1.1050     5.5130 h4         1 FMD       0.167000
     48 H16          6.5740     1.2720     3.3360 hn         1 FMD       0.173700
     49 H283         2.8110     1.9540     4.9690 hn         1 FMD       0.297133
@<TRIPOS>BOND
     1     1     2 1   
     2     2     3 ar  
     3     2    19 ar  
     4     3     4 1   
     5     3    13 ar  
     6     4     5 3   
     7     5     6 1   
     8     6     7 1   
     9     6     8 1   
    10     6    29 1   
    11     7    30 1   
    12     8     9 1   
    13     8    10 1   
    14     8    31 1   
    15     9    32 1   
    16     9    33 1   
    17     9    49 1   
    18    10    11 1   
    19    10    12 1   
    20    10    34 1   
    21    11    35 1   
    22    12    36 1   
    23    12    37 1   
    24    12    38 1   
    25    13    14 ar  
    26    13    20 1   
    27    14    15 1   
    28    14    18 ar  
    29    15    16 1   
    30    15    39 1   
    31    16    17 2   
    32    16    20 1   
    33    18    19 ar  
    34    18    40 1   
    35    19    41 1   
    36    20    21 2   
    37    21    22 1   
    38    21    42 1   
    39    22    23 2   
    40    22    28 1   
    41    23    24 1   
    42    23    26 1   
    43    24    25 1   
    44    25    43 1   
    45    25    44 1   
    46    25    45 1   
    47    26    27 2   
    48    26    46 1   
    49    27    28 1   
    50    27    47 1   
    51    28    48 1   
@<TRIPOS>SUBSTRUCTURE
     1 FMD         1 TEMP              0 ****  ****    0 ROOT
