@<TRIPOS>MOLECULE
FMF
   22    22     1     0     0
SMALL
bcc


@<TRIPOS>ATOM
      1 C5          0.0140    0.0670   -0.0410 c3        1 FMF      0.108100
      2 C2          1.3660   -1.0240    2.3190 c3        1 FMF      0.088600
      3 F2          1.9460   -2.2250    1.9560 f         1 FMF     -0.219300
      4 C3          1.9840    0.1500    1.5300 c3        1 FMF      0.074100
      5 O3          3.3930    0.1450    1.6170 oh        1 FMF     -0.586800
      6 C4          1.5450    0.1050    0.0560 c3        1 FMF      0.086100
      7 O4          1.9780    1.2670   -0.6270 oh        1 FMF     -0.588800
      8 C6         -0.4430   -0.1410   -1.4890 c3        1 FMF      0.142400
      9 O6         -1.8440   -0.0420   -1.5970 oh        1 FMF     -0.592800
     10 O          -0.4940   -1.0540    0.6880 os        1 FMF     -0.435600
     11 C1         -0.1740   -1.0180    2.0720 c3        1 FMF      0.358400
     12 F1         -0.7850   -2.1610    2.5110 f         1 FMF     -0.201300
     13 H5         -0.4260    1.0160    0.3720 h1        1 FMF      0.070700
     14 H2          1.5480   -0.8690    3.4210 h1        1 FMF      0.083700
     15 H3          1.6740    1.1270    1.9960 h1        1 FMF      0.100700
     16 HO3         3.6990   -0.7340    1.3540 ho        1 FMF      0.418000
     17 H4          1.9840   -0.8100   -0.4340 h1        1 FMF      0.061700
     18 HO4         2.9100    1.3900   -0.3980 ho        1 FMF      0.423000
     19 H61        -0.0290    0.6900   -2.1220 h1        1 FMF      0.067200
     20 H62        -0.0850   -1.1360   -1.8630 h1        1 FMF      0.067200
     21 HO6        -2.2210   -0.7530   -1.0630 ho        1 FMF      0.413000
     22 H1         -0.6220   -0.1070    2.5640 h2        1 FMF      0.062700
@<TRIPOS>BOND
     1    1    6 1   
     2    1    8 1   
     3    1   10 1   
     4    1   13 1   
     5    2    3 1   
     6    2    4 1   
     7    2   11 1   
     8    2   14 1   
     9    4    5 1   
    10    4    6 1   
    11    4   15 1   
    12    5   16 1   
    13    6    7 1   
    14    6   17 1   
    15    7   18 1   
    16    8    9 1   
    17    8   19 1   
    18    8   20 1   
    19    9   21 1   
    20   10   11 1   
    21   11   12 1   
    22   11   22 1   
@<TRIPOS>SUBSTRUCTURE
     1 FMF         1 TEMP              0 ****  ****    0 ROOT
