@<TRIPOS>MOLECULE
molecule
   22    22     1     0     0
SMALL
bcc


@<TRIPOS>ATOM
      1 C5           0.0000     0.0000     0.0000 c3         1 FMF       0.149100
      2 C2           1.4150    -1.1070     2.2450 c3         1 FMF       0.107600
      3 F2           1.7950    -2.3090     1.7170 f          1 FMF      -0.209300
      4 C3           2.0720     0.0000     1.4340 c3         1 FMF       0.100100
      5 O3           3.4800    -0.2110     1.4420 oh         1 FMF      -0.585800
      6 C4           1.5370     0.0000     0.0000 c3         1 FMF       0.114100
      7 O4           1.9990     1.1610    -0.6830 oh         1 FMF      -0.601800
      8 C6          -0.5610    -0.1460    -1.4110 c3         1 FMF       0.155400
      9 O6          -1.9750    -0.1490    -1.3350 oh         1 FMF      -0.594800
     10 O           -0.5110    -1.0860     0.7810 os         1 FMF      -0.401600
     11 C1          -0.0950    -1.0170     2.1410 c3         1 FMF       0.357400
     12 F1          -0.6430    -2.0810     2.7860 f          1 FMF      -0.200300
     13 H5          -0.3490     0.9320     0.4270 h1         1 FMF       0.059700
     14 H2           1.7200    -1.0370     3.2830 h1         1 FMF       0.070700
     15 H3           1.8490     0.9550     1.8930 h1         1 FMF       0.052700
     16 HO3          3.8900     0.4260     2.0050 ho         1 FMF       0.411000
     17 H4           1.8920    -0.8860    -0.5120 h1         1 FMF       0.071700
     18 HO4          2.7050     0.9250    -1.2620 ho         1 FMF       0.418000
     19 H61         -0.2310     0.6850    -2.0220 h1         1 FMF       0.036700
     20 H62         -0.2180    -1.0770    -1.8450 h1         1 FMF       0.036700
     21 HO6         -2.3370    -0.1210    -2.2050 ho         1 FMF       0.406000
     22 H1          -0.4400    -0.0910     2.5850 h2         1 FMF       0.048700
@<TRIPOS>BOND
     1     1     6 1
     2     1     8 1
     3     1    10 1
     4     1    13 1
     5     2     3 1
     6     2     4 1
     7     2    11 1
     8     2    14 1
     9     4     5 1
    10     4     6 1
    11     4    15 1
    12     5    16 1
    13     6     7 1
    14     6    17 1
    15     7    18 1
    16     8     9 1
    17     8    19 1
    18     8    20 1
    19     9    21 1
    20    10    11 1
    21    11    12 1
    22    11    22 1
@<TRIPOS>SUBSTRUCTURE
     1 FMF         1 TEMP              0 ****  ****    0 ROOT
