@<TRIPOS>MOLECULE
FMJ
   31    30     1     0     0
SMALL
bcc


@<TRIPOS>ATOM
      1 C1          0.5990   -0.3460   -0.7610 cc        1 FMJ      0.477300
      2 C2          1.9850   -0.1470   -0.3060 cc        1 FMJ     -0.259400
      3 C3          0.1220   -0.1790   -2.0630 cg        1 FMJ     -0.208000
      4 C5          3.1420    0.2450   -1.1000 ce        1 FMJ      0.211400
      5 C6          1.9380   -0.4200    1.0530 cd        1 FMJ      0.281000
      6 C14        -5.0560   -1.8700    1.0360 c1        1 FMJ     -0.166000
      7 C16         3.8800    2.8880   -3.6180 c1        1 FMJ      0.514800
      8 C15         3.4780    0.3280   -3.4790 cf        1 FMJ      0.947500
      9 N10         3.2250   -0.3430   -2.3770 ne        1 FMJ     -0.648300
     10 N18         3.7190    1.7160   -3.5580 n1        1 FMJ     -0.927400
     11 C11         4.0980    1.0250   -0.5430 c2        1 FMJ     -0.249000
     12 C12         2.9010   -0.4380    2.1520 c3        1 FMJ     -0.142400
     13 O9          0.6030   -0.7580    1.3760 os        1 FMJ     -0.114100
     14 N4         -0.1580   -0.7060    0.3060 nd        1 FMJ     -0.355300
     15 C8         -3.8950   -1.6110    0.9130 c1        1 FMJ     -0.166000
     16 C17        -2.0460    0.0870   -4.8440 c2        1 FMJ     -0.177000
     17 C13        -0.7570    0.1340   -4.4920 cf        1 FMJ     -0.040700
     18 C7         -0.2970   -0.0380   -3.1780 ch        1 FMJ     -0.097300
     19 H14        -6.0850   -2.1000    1.1450 ha        1 FMJ      0.165500
     20 H16         4.0120    1.3740    0.4930 ha        1 FMJ      0.125500
     21 HN19        4.0990   -0.0190   -5.4030 hn        1 FMJ      0.416300
     22 HN1A        3.3820   -1.3350   -4.6630 hn        1 FMJ      0.416300
     23 H11         5.0030    1.3410   -1.0740 ha        1 FMJ      0.125500
     24 H12         3.9170   -0.6980    1.7610 hc        1 FMJ      0.069367
     25 H12A        2.9480    0.5720    2.6350 hc        1 FMJ      0.069367
     26 H12B        2.6000   -1.1870    2.9270 hc        1 FMJ      0.069367
     27 H8         -2.8630   -1.3810    0.8030 ha        1 FMJ      0.165500
     28 H17        -2.8570   -0.0910   -4.1250 ha        1 FMJ      0.122000
     29 H13        -2.3630    0.2260   -5.8860 ha        1 FMJ      0.122000
     30 H7          0.0380    0.3140   -5.2420 ha        1 FMJ      0.143000
     31 N19         3.4370   -0.3400   -4.7320 nh        1 FMJ     -0.889800
@<TRIPOS>BOND
     1    1    2 1   
     2    1    3 1   
     3    1   14 2   
     4    2    4 1   
     5    2    5 2   
     6    3   18 3   
     7    4    9 1   
     8    4   11 2   
     9    5   12 1   
    10    5   13 1   
    11    6   15 3   
    12    6   19 1   
    13    7   10 3   
    14    8    9 2   
    15    8   10 1   
    16    8   31 1   
    17   11   20 1   
    18   11   23 1   
    19   12   24 1   
    20   12   25 1   
    21   12   26 1   
    22   13   14 1   
    23   15   27 1   
    24   16   17 2   
    25   16   28 1   
    26   16   29 1   
    27   17   18 1   
    28   17   30 1   
    29   21   31 1   
    30   22   31 1   
@<TRIPOS>SUBSTRUCTURE
     1 FMJ         1 TEMP              0 ****  ****    0 ROOT
