@<TRIPOS>MOLECULE
FMK
   46    49     1     0     0
SMALL
bcc


@<TRIPOS>ATOM
      1 C21          0.0000     0.0000     0.0000 ca         1 FMK       0.105900
      2 C20          1.3820     0.0000     0.0000 ca         1 FMK      -0.135000
      3 C24         -3.0840    -2.7540     5.0380 c3         1 FMK       0.039300
      4 C18          1.3850     0.0010     2.4000 ca         1 FMK      -0.103000
      5 C6          -4.8470     1.7770     4.7580 ca         1 FMK       0.557200
      6 C2          -6.7020     1.2820     8.3500 c3         1 FMK       0.114500
      7 C3          -6.7530     1.1120     9.8700 c3         1 FMK      -0.021700
      8 C4          -5.2840     0.3840     6.5460 ca         1 FMK       0.764900
      9 C11         -2.5980    -1.3260     3.1350 c          1 FMK       0.588700
     10 C12         -2.6890    -0.1180     2.4030 cc         1 FMK      -0.037100
     11 C13         -3.4140     0.9240     2.8950 cd         1 FMK       0.013800
     12 C16         -0.6930     0.0010     1.2040 ca         1 FMK       0.113100
     13 C17          0.0020     0.0010     2.4040 ca         1 FMK      -0.137000
     14 C8          -4.0830     0.7560     4.1820 ca         1 FMK      -0.433400
     15 C9          -3.9580    -0.4700     4.8700 ca         1 FMK       0.451200
     16 C19          2.0750     0.0000     1.2000 ca         1 FMK       0.093900
     17 F23          3.4260     0.0000     1.1990 f          1 FMK      -0.125900
     18 F22         -0.6760     0.0050    -1.1690 f          1 FMK      -0.116900
     19 O15         -2.0530     0.0010     1.2080 os         1 FMK      -0.174200
     20 O14         -1.9450    -2.2480     2.6800 o          1 FMK      -0.660500
     21 N10         -3.2120    -1.4830     4.3220 n          1 FMK       0.012700
     22 N5          -4.5700    -0.6110     6.0390 nb         1 FMK      -0.728000
     23 N7          -5.4220     1.5500     5.9260 nb         1 FMK      -0.725000
     24 C30         -8.1220     1.2360     7.7830 c3         1 FMK      -0.012100
     25 N25         -5.4080     1.2750    10.4260 na         1 FMK       0.715900
     26 N29         -4.8920     2.3890    10.8200 nc         1 FMK      -0.691800
     27 C28         -3.6800     2.1400    11.2520 cd         1 FMK       0.534900
     28 N27         -3.4770     0.8310    11.1080 nd         1 FMK      -0.348000
     29 N26         -4.5530     0.3290    10.6060 nc         1 FMK      -0.368800
     30 H20          1.9240    -0.0010    -0.9380 ha         1 FMK       0.135000
     31 H24         -4.0690    -3.1700     5.2140 h1         1 FMK       0.035033
     32 H24A        -2.5010    -3.4470     4.4430 h1         1 FMK       0.035033
     33 H24B        -2.5880    -2.5860     5.9860 h1         1 FMK       0.035033
     34 H18          1.9280     0.0010     3.3370 ha         1 FMK       0.120000
     35 H6          -4.9650     2.7310     4.2580 h4         1 FMK      -0.011900
     36 H2          -6.2480     2.2360     8.1090 h1         1 FMK       0.073700
     37 H3          -7.4130     1.8590    10.2960 h1         1 FMK       0.057700
     38 H3A         -7.1250     0.1230    10.1100 h1         1 FMK       0.057700
     39 H13         -3.4920     1.8540     2.3450 ha         1 FMK       0.124000
     40 H17         -0.5370     0.0020     3.3430 ha         1 FMK       0.122000
     41 HN1         -5.8590    -0.6900     8.2210 hn         1 FMK       0.315800
     42 H30         -8.0970     1.4770     6.7270 hc         1 FMK       0.018033
     43 H30A        -8.7420     1.9560     8.3030 hc         1 FMK       0.018033
     44 H30B        -8.5320     0.2420     7.9170 hc         1 FMK       0.018033
     45 H28         -2.9770     2.8620    11.6500 h5         1 FMK       0.037100
     46 N1          -5.9060     0.2000     7.7650 nu         1 FMK      -0.478900
@<TRIPOS>BOND
     1     1     2 ar  
     2     1    12 ar  
     3     1    18 1   
     4     2    16 ar  
     5     2    30 1   
     6     3    21 1   
     7     3    31 1   
     8     3    32 1   
     9     3    33 1   
    10     4    13 ar  
    11     4    16 ar  
    12     4    34 1   
    13     5    14 ar  
    14     5    23 ar  
    15     5    35 1   
    16     6     7 1   
    17     6    24 1   
    18     6    36 1   
    19     6    46 1   
    20     7    25 1   
    21     7    37 1   
    22     7    38 1   
    23     8    22 ar  
    24     8    23 ar  
    25     8    46 1   
    26     9    10 1   
    27     9    20 2   
    28     9    21 1   
    29    10    11 2   
    30    10    19 1   
    31    11    14 1   
    32    11    39 1   
    33    12    13 ar  
    34    12    19 1   
    35    13    40 1   
    36    14    15 ar  
    37    15    21 1   
    38    15    22 ar  
    39    16    17 1   
    40    24    42 1   
    41    24    43 1   
    42    24    44 1   
    43    25    26 1   
    44    25    29 1   
    45    26    27 2   
    46    27    28 1   
    47    27    45 1   
    48    28    29 2   
    49    41    46 1   
@<TRIPOS>SUBSTRUCTURE
     1 FMK         1 TEMP              0 ****  ****    0 ROOT
