@<TRIPOS>MOLECULE
FML
   41    43     1     0     0
SMALL
bcc


@<TRIPOS>ATOM
      1 C1           0.0000     0.0000     0.0000 ca         1 FML       0.583200
      2 N2           1.3220     0.0000     0.0000 nb         1 FML      -0.743000
      3 C3           2.0100     0.0000     1.1360 ca         1 FML       0.863300
      4 C5          -0.6670     0.0010     1.2250 ca         1 FML      -0.561500
      5 C6           0.0960     0.0020     2.4130 ca         1 FML       0.340800
      6 C9          -2.0700     0.0010     1.6380 cc         1 FML       0.559800
      7 C11          3.9500    -0.1070    -0.1440 ca         1 FML       0.082100
      8 C13         -4.5320     0.0010     1.3570 c3         1 FML       0.172500
      9 C14         -5.5070    -0.6080     0.3470 c3         1 FML      -0.034600
     10 C15         -4.9530     1.4390     1.6700 c3         1 FML      -0.017100
     11 C22          5.1360    -0.3260    -2.6360 ca         1 FML       0.127900
     12 C21          4.9270    -1.4570    -1.8660 ca         1 FML      -0.134000
     13 C20          4.3350    -1.3500    -0.6220 ca         1 FML      -0.056000
     14 C23          4.7510     0.9170    -2.1610 ca         1 FML      -0.160000
     15 C24          4.1590     1.0280    -0.9160 ca         1 FML       0.133900
     16 F25          3.7840     2.2410    -0.4520 f          1 FML      -0.116900
     17 O10          3.3620    -0.0000     1.0790 os         1 FML      -0.314400
     18 N4           1.4230     0.0010     2.3190 nb         1 FML      -0.660000
     19 N7          -0.7890     0.0020     3.4500 na         1 FML       0.350200
     20 N8          -2.0940     0.0020     2.9460 nd         1 FML      -0.740100
     21 N12         -3.1800     0.0020     0.7920 nu         1 FML      -0.457200
     22 S16         -5.0950    -2.3550     0.0880 s6         1 FML       0.795000
     23 O17         -3.8180    -2.4330    -0.5290 o          1 FML      -0.582300
     24 O18         -5.3230    -3.0590     1.3020 o          1 FML      -0.582300
     25 C19         -6.3520    -2.8610    -1.1180 c3         1 FML       0.015700
     26 H1          -0.5530     0.0000    -0.9310 h4         1 FML      -0.019900
     27 H13         -4.5420    -0.5850     2.2680 h1         1 FML       0.069700
     28 H14         -5.4320    -0.0760    -0.5930 h1         1 FML       0.070700
     29 H14A        -6.5180    -0.5280     0.7280 h1         1 FML       0.070700
     30 H15         -5.9800     1.4470     2.0170 hc         1 FML       0.013367
     31 H15A        -4.8710     2.0430     0.7750 hc         1 FML       0.013367
     32 H15B        -4.3090     1.8450     2.4400 hc         1 FML       0.013367
     33 H21          5.2270    -2.4290    -2.2400 ha         1 FML       0.124000
     34 H20          4.1720    -2.2360    -0.0210 ha         1 FML       0.122000
     35 H23          4.9150     1.8020    -2.7640 ha         1 FML       0.136000
     36 HN7         -0.5430     0.0020     4.4200 hn         1 FML       0.155700
     37 HN12        -3.0530     0.0030    -0.2000 hn         1 FML       0.309800
     38 H19         -6.2140    -3.9070    -1.3670 h1         1 FML       0.061033
     39 H19A        -7.3390    -2.7190    -0.6930 h1         1 FML       0.061033
     40 H19B        -6.2550    -2.2610    -2.0150 h1         1 FML       0.061033
     41 F26          5.7140    -0.4330    -3.8520 f          1 FML      -0.123900
@<TRIPOS>BOND
     1     1     2 ar  
     2     1     4 ar  
     3     1    26 1   
     4     2     3 ar  
     5     3    17 1   
     6     3    18 ar  
     7     4     5 ar  
     8     4     6 1   
     9     5    18 ar  
    10     5    19 1   
    11     6    20 2   
    12     6    21 1   
    13     7    13 ar  
    14     7    15 ar  
    15     7    17 1   
    16     8     9 1   
    17     8    10 1   
    18     8    21 1   
    19     8    27 1   
    20     9    22 1   
    21     9    28 1   
    22     9    29 1   
    23    10    30 1   
    24    10    31 1   
    25    10    32 1   
    26    11    12 ar  
    27    11    14 ar  
    28    11    41 1   
    29    12    13 ar  
    30    12    33 1   
    31    13    34 1   
    32    14    15 ar  
    33    14    35 1   
    34    15    16 1   
    35    19    20 1   
    36    19    36 1   
    37    21    37 1   
    38    22    23 2   
    39    22    24 2   
    40    22    25 1   
    41    25    38 1   
    42    25    39 1   
    43    25    40 1   
@<TRIPOS>SUBSTRUCTURE
     1 FML         1 TEMP              0 ****  ****    0 ROOT
