@<TRIPOS>MOLECULE
molecule
   41    43     1     0     0
SMALL
bcc


@<TRIPOS>ATOM
      1 C1           0.0000     0.0000     0.0000 ca         1 FML       0.574200
      2 N2           1.3220     0.0000     0.0000 nb         1 FML      -0.831000
      3 C3           2.0100     0.0000     1.1360 ca         1 FML       0.946300
      4 C5          -0.6670     0.0010     1.2250 ca         1 FML      -0.543500
      5 C6           0.0960     0.0020     2.4130 ca         1 FML       0.558800
      6 C9          -2.0700     0.0010     1.6380 cc         1 FML       0.654800
      7 C11          3.9500    -0.1070    -0.1440 ca         1 FML       0.062100
      8 C13         -4.5320     0.0010     1.3570 c3         1 FML       0.271500
      9 C14         -5.5070    -0.6080     0.3470 c3         1 FML      -0.228600
     10 C15         -4.9530     1.4390     1.6700 c3         1 FML      -0.104100
     11 C22          5.1360    -0.3260    -2.6360 ca         1 FML       0.165900
     12 C21          4.9270    -1.4570    -1.8660 ca         1 FML      -0.178000
     13 C20          4.3350    -1.3500    -0.6220 ca         1 FML      -0.072000
     14 C23          4.7510     0.9170    -2.1610 ca         1 FML      -0.208000
     15 C24          4.1590     1.0280    -0.9160 ca         1 FML       0.172900
     16 F25          3.7840     2.2410    -0.4520 f          1 FML      -0.120900
     17 O10          3.3620    -0.0000     1.0790 os         1 FML      -0.318400
     18 N4           1.4230     0.0010     2.3190 nb         1 FML      -0.785000
     19 N7          -0.7890     0.0020     3.4500 na         1 FML      -0.132800
     20 N8          -2.0940     0.0020     2.9460 nd         1 FML      -0.580100
     21 N12         -3.1800     0.0020     0.7920 nu         1 FML      -0.876200
     22 S16         -5.0950    -2.3550     0.0880 s6         1 FML       1.105000
     23 O17         -3.8180    -2.4330    -0.5290 o          1 FML      -0.607800
     24 O18         -5.3230    -3.0590     1.3020 o          1 FML      -0.607800
     25 C19         -6.3520    -2.8610    -1.1180 c3         1 FML      -0.230300
     26 H1          -0.5530     0.0000    -0.9310 h4         1 FML       0.032100
     27 H13         -4.5420    -0.5850     2.2680 h1         1 FML       0.090700
     28 H14         -5.4320    -0.0760    -0.5930 h1         1 FML       0.101700
     29 H14A        -6.5180    -0.5280     0.7280 h1         1 FML       0.101700
     30 H15         -5.9800     1.4470     2.0170 hc         1 FML       0.047367
     31 H15A        -4.8710     2.0430     0.7750 hc         1 FML       0.047367
     32 H15B        -4.3090     1.8450     2.4400 hc         1 FML       0.047367
     33 H21          5.2270    -2.4290    -2.2400 ha         1 FML       0.155000
     34 H20          4.1720    -2.2360    -0.0210 ha         1 FML       0.158000
     35 H23          4.9150     1.8020    -2.7640 ha         1 FML       0.164000
     36 HN7         -0.5430     0.0020     4.4200 hn         1 FML       0.345700
     37 HN12        -3.0530     0.0030    -0.2000 hn         1 FML       0.459800
     38 H19         -6.2140    -3.9070    -1.3670 h1         1 FML       0.098367
     39 H19A        -7.3390    -2.7190    -0.6930 h1         1 FML       0.098367
     40 H19B        -6.2550    -2.2610    -2.0150 h1         1 FML       0.098367
     41 F26          5.7140    -0.4330    -3.8520 f          1 FML      -0.131900
@<TRIPOS>BOND
     1     1     2 ar
     2     1     4 ar
     3     2     3 ar
     4     3    17 1
     5     3    18 ar
     6     4     5 ar
     7     4     6 1
     8     5    18 ar
     9     5    19 1
    10     6    20 2
    11     6    21 1
    12     7    13 ar
    13     7    15 ar
    14     7    17 1
    15     8     9 1
    16     8    10 1
    17     8    21 1
    18     9    22 1
    19    41    11 1
    20    11    12 ar
    21    11    14 ar
    22    12    13 ar
    23    14    15 ar
    24    15    16 1
    25    19    20 1
    26    22    23 2
    27    22    24 2
    28    22    25 1
    29     1    26 1
    30     8    27 1
    31     9    28 1
    32     9    29 1
    33    10    30 1
    34    10    31 1
    35    10    32 1
    36    12    33 1
    37    13    34 1
    38    14    35 1
    39    19    36 1
    40    21    37 1
    41    25    38 1
    42    25    39 1
    43    25    40 1
@<TRIPOS>SUBSTRUCTURE
     1 FML         1 TEMP              0 ****  ****    0 ROOT
