@<TRIPOS>MOLECULE
FMM
   67    71     1     0     0
SMALL
bcc


@<TRIPOS>ATOM
      1 C1          2.5270   -1.3610   -2.8720 c3        1 FMM     -0.405300
      2 S2          3.8240   -0.7030   -2.0680 s6        1 FMM      1.353000
      3 O3          3.6790   -0.7660   -0.6860 o         1 FMM     -0.629300
      4 O4          5.0410   -1.0640   -2.6360 o         1 FMM     -0.629300
      5 C5          3.5840    0.9940   -2.4910 c3        1 FMM     -0.327600
      6 C6          4.6360    1.8340   -1.8070 c3        1 FMM      0.130800
      7 N7          4.5040    3.2890   -2.0960 n4        1 FMM     -0.767000
      8 C8          5.5610    4.1000   -1.3870 c3        1 FMM      0.118500
      9 C9          5.4190    5.5210   -1.7080 cc        1 FMM      0.072000
     10 C10         5.0570    6.6440   -0.9820 cd        1 FMM     -0.123300
     11 C11         5.2080    7.7710   -1.8570 cd        1 FMM     -0.276300
     12 C12         5.6570    7.2800   -3.0820 cc        1 FMM      0.409200
     13 O13         5.7950    5.8880   -3.0150 os        1 FMM     -0.381800
     14 C14         5.9840    7.9240   -4.3280 ca        1 FMM     -0.201500
     15 C15         5.5300    9.2550   -4.5440 ca        1 FMM     -0.081000
     16 C16         5.8420    9.9200   -5.6990 ca        1 FMM     -0.171300
     17 C17         6.6330    9.2900   -6.7150 ca        1 FMM      0.469600
     18 N18         6.9500    9.9860   -7.8610 nb        1 FMM     -0.715000
     19 C19         7.7010    9.3360   -8.7550 ca        1 FMM      0.697900
     20 N20         8.1860    8.0550   -8.6850 nb        1 FMM     -0.757000
     21 C21         7.8850    7.3460   -7.5710 ca        1 FMM      0.707200
     22 N22         8.3870    6.0570   -7.3950 nh        1 FMM     -0.713300
     23 C23         9.0660    5.3490   -8.4190 ca        1 FMM      0.084600
     24 C24        10.2400    5.8590   -9.0050 ca        1 FMM     -0.060000
     25 C25        10.9280    5.1140   -9.9560 ca        1 FMM     -0.188000
     26 C26        10.4730    3.8450  -10.3390 ca        1 FMM      0.147100
     27 O27        11.0980    3.0460  -11.2680 os        1 FMM     -0.308900
     28 C28        12.3210    3.5620  -11.8220 c3        1 FMM      0.174700
     29 C29        12.8480    2.5310  -12.7670 ca        1 FMM     -0.076300
     30 C30        11.9840    1.7400  -13.5270 ca        1 FMM     -0.115000
     31 C31        12.5020    0.8090  -14.4290 ca        1 FMM     -0.106000
     32 C32        13.8760    0.6620  -14.5860 ca        1 FMM     -0.154000
     33 C33        14.7450    1.4600  -13.8170 ca        1 FMM      0.127900
     34 F34        16.0860    1.3250  -13.9570 f         1 FMM     -0.135900
     35 C35        14.2320    2.3950  -12.9010 ca        1 FMM     -0.160000
     36 C36         9.2970    3.3230   -9.7530 ca        1 FMM     -0.001600
     37 CL3         8.6890    1.7930  -10.1680 cl        1 FMM     -0.064400
     38 C38         8.6010    4.0760   -8.8100 ca        1 FMM     -0.132000
     39 C39         7.0780    7.9440   -6.5000 ca        1 FMM     -0.313600
     40 C40         6.7450    7.2880   -5.2970 ca        1 FMM     -0.033000
     41 H11A        1.5290   -1.0560   -2.4620 h1        1 FMM      0.144367
     42 H12         2.5300   -2.4860   -2.8120 h1        1 FMM      0.144367
     43 H13         2.4940   -1.1360   -3.9690 h1        1 FMM      0.144367
     44 H51         3.6420    1.1150   -3.6030 h1        1 FMM      0.117200
     45 H52         2.5560    1.3160   -2.1840 h1        1 FMM      0.117200
     46 H61         5.6650    1.5060   -2.1460 hx        1 FMM      0.124200
     47 H62         4.5640    1.6960   -0.6850 hx        1 FMM      0.124200
     48 HN7         3.5750    3.6160   -1.8070 hn        1 FMM      0.452300
     49 H81         6.5650    3.7070   -1.7250 hx        1 FMM      0.119700
     50 H82         5.4460    3.9350   -0.2770 hx        1 FMM      0.119700
     51 H10         4.7310    6.6850    0.0580 ha        1 FMM      0.180000
     52 H11         5.0200    8.8110   -1.5970 ha        1 FMM      0.191000
     53 H15         4.9240    9.7460   -3.7660 ha        1 FMM      0.147000
     54 H16         5.4940   10.9540   -5.8660 ha        1 FMM      0.173000
     55 H19         7.9700    9.8860   -9.6850 h5        1 FMM      0.069100
     56 H22         7.8520    5.4770   -6.7860 hn        1 FMM      0.422800
     57 H24        10.6230    6.8530   -8.7240 ha        1 FMM      0.160000
     58 H25        11.8370    5.5420  -10.4040 ha        1 FMM      0.153000
     59 H281       12.0990    4.5150  -12.3750 h1        1 FMM      0.055200
     60 H282       13.0500    3.7600  -10.9910 h1        1 FMM      0.055200
     61 H30        10.8960    1.8480  -13.4020 ha        1 FMM      0.152000
     62 H31        11.8170    0.1860  -15.0240 ha        1 FMM      0.143000
     63 H32        14.2910   -0.0670  -15.2970 ha        1 FMM      0.154000
     64 H35        14.9250    3.0050  -12.3040 ha        1 FMM      0.148000
     65 H38         7.6790    3.6590   -8.3730 ha        1 FMM      0.137000
     66 H40         7.1000    6.2660   -5.0910 ha        1 FMM      0.133000
     67 H72         4.5880    3.4530   -3.1070 hn        1 FMM      0.452300
@<TRIPOS>BOND
     1    1    2 1   
     2    1   41 1   
     3    1   42 1   
     4    1   43 1   
     5    2    3 2   
     6    2    4 2   
     7    2    5 1   
     8    5    6 1   
     9    5   44 1   
    10    5   45 1   
    11    6    7 1   
    12    6   46 1   
    13    6   47 1   
    14    7    8 1   
    15    7   48 1   
    16    7   67 1   
    17    8    9 1   
    18    8   49 1   
    19    8   50 1   
    20    9   10 2   
    21    9   13 1   
    22   10   11 1   
    23   10   51 1   
    24   11   12 2   
    25   11   52 1   
    26   12   13 1   
    27   12   14 1   
    28   14   15 ar  
    29   14   40 ar  
    30   15   16 ar  
    31   15   53 1   
    32   16   17 ar  
    33   16   54 1   
    34   17   18 ar  
    35   17   39 ar  
    36   18   19 ar  
    37   19   20 ar  
    38   19   55 1   
    39   20   21 ar  
    40   21   22 1   
    41   21   39 ar  
    42   22   23 1   
    43   22   56 1   
    44   23   24 ar  
    45   23   38 ar  
    46   24   25 ar  
    47   24   57 1   
    48   25   26 ar  
    49   25   58 1   
    50   26   27 1   
    51   26   36 ar  
    52   27   28 1   
    53   28   29 1   
    54   28   59 1   
    55   28   60 1   
    56   29   30 ar  
    57   29   35 ar  
    58   30   31 ar  
    59   30   61 1   
    60   31   32 ar  
    61   31   62 1   
    62   32   33 ar  
    63   32   63 1   
    64   33   34 1   
    65   33   35 ar  
    66   35   64 1   
    67   36   37 1   
    68   36   38 ar  
    69   38   65 1   
    70   39   40 ar  
    71   40   66 1   
@<TRIPOS>SUBSTRUCTURE
     1 FMM         1 TEMP              0 ****  ****    0 ROOT
