@<TRIPOS>MOLECULE
molecule
   50    52     1     0     0
SMALL
bcc


@<TRIPOS>ATOM
      1 N1           0.0000     0.0000     0.0000 nc         1 FMN      -0.463400
      2 C2           1.3310     0.0000     0.0000 c          1 FMN       0.853900
      3 O2           1.9020     0.0000    -1.0770 o          1 FMN      -0.628500
      4 N3           2.0820     0.0000     1.1090 ns         1 FMN      -0.595500
      5 C4           1.5180     0.0010     2.3400 c          1 FMN       0.617000
      6 O4           2.1980     0.0010     3.3480 o          1 FMN      -0.614500
      7 C4A          0.0400    -0.0010     2.4060 cd         1 FMN       0.255800
      8 N5          -0.6070    -0.0010     3.5420 nc         1 FMN      -0.573000
      9 C5A         -1.9470    -0.0030     3.5660 ca         1 FMN       0.317600
     10 C6          -2.6260    -0.0030     4.8000 ca         1 FMN      -0.133300
     11 C7          -3.9880    -0.0040     4.8270 ca         1 FMN      -0.114300
     12 C7M         -4.7060    -0.0050     6.1510 c3         1 FMN      -0.039800
     13 C8          -4.7220    -0.0040     3.6460 ca         1 FMN      -0.046300
     14 C8M         -6.2270    -0.0040     3.7040 c3         1 FMN      -0.047800
     15 C9          -4.0860    -0.0020     2.4240 ca         1 FMN      -0.144000
     16 C9A         -2.6950    -0.0030     2.3660 ca         1 FMN      -0.021600
     17 N10         -2.0530    -0.0020     1.1450 na         1 FMN      -0.074100
     18 C10         -0.6920    -0.0010     1.1270 cd         1 FMN       0.081400
     19 C1'         -2.8200    -0.0020    -0.1030 c3         1 FMN       0.024300
     20 C2'         -3.0870     1.4400    -0.5380 c3         1 FMN       0.123100
     21 O2'         -3.8320     2.1130     0.4780 oh         1 FMN      -0.593800
     22 C3'         -3.8870     1.4410    -1.8420 c3         1 FMN       0.137100
     23 O3'         -3.1400     0.7670    -2.8580 oh         1 FMN      -0.596800
     24 C4'         -4.1540     2.8830    -2.2770 c3         1 FMN       0.123100
     25 O4'         -4.9000     3.5560    -1.2600 oh         1 FMN      -0.624800
     26 C5'         -4.9540     2.8820    -3.5810 c3         1 FMN       0.197400
     27 O5'         -5.1030     4.2240    -4.0480 os         1 FMN      -0.585200
     28 P           -5.8940     4.5990    -5.3990 p5         1 FMN       1.194900
     29 O1P         -7.2630     4.0380    -5.3430 o          1 FMN      -0.848500
     30 O2P         -5.9770     6.2000    -5.5460 o          1 FMN      -0.848500
     31 O3P         -5.1130     3.9840    -6.6660 o          1 FMN      -0.848500
     32 HN3          3.0800    -0.0000     1.0260 hn         1 FMN       0.339500
     33 H6          -2.0650    -0.0410     5.7260 ha         1 FMN       0.145000
     34 HM71        -5.3410     0.8700     6.2170 hc         1 FMN       0.038033
     35 HM72        -3.9810     0.0140     6.9550 hc         1 FMN       0.038033
     36 HM73        -5.3130    -0.8980     6.2320 hc         1 FMN       0.038033
     37 HM81        -6.6270    -0.0760     2.6990 hc         1 FMN       0.046033
     38 HM82        -6.5710     0.9150     4.1630 hc         1 FMN       0.046033
     39 HM83        -6.5670    -0.8500     4.2890 hc         1 FMN       0.046033
     40 H9          -4.6670    -0.0020     1.5100 ha         1 FMN       0.167000
     41 H1'1        -3.7620    -0.5130     0.0520 h1         1 FMN       0.086200
     42 H1'2        -2.2550    -0.5130    -0.8740 h1         1 FMN       0.086200
     43 H2'         -2.1450     1.9510    -0.6920 h1         1 FMN       0.065700
     44 HO2'        -3.3970     2.9180     0.7060 ho         1 FMN       0.410000
     45 H3'         -4.8300     0.9290    -1.6880 h1         1 FMN       0.044700
     46 HO3'        -3.6940     0.1370    -3.2900 ho         1 FMN       0.406000
     47 H4'         -3.2120     3.3940    -2.4310 h1         1 FMN       0.043700
     48 HO4'        -4.8330     4.4880    -1.3860 ho         1 FMN       0.421000
     49 H5'1        -5.9310     2.4500    -3.4050 h1         1 FMN       0.024700
     50 H5'2        -4.4290     2.2960    -4.3260 h1         1 FMN       0.024700
@<TRIPOS>BOND
     1     1     2 1
     2     1    18 2
     3     2     3 2
     4     2     4 1
     5     4     5 1
     6     4    32 1
     7     5     6 2
     8     5     7 1
     9     7     8 2
    10     7    18 1
    11     8     9 1
    12     9    10 ar
    13     9    16 ar
    14    10    11 ar
    15    10    33 1
    16    11    12 1
    17    11    13 ar
    18    12    34 1
    19    12    35 1
    20    12    36 1
    21    13    14 1
    22    13    15 ar
    23    14    37 1
    24    14    38 1
    25    14    39 1
    26    15    16 ar
    27    15    40 1
    28    16    17 1
    29    17    18 1
    30    17    19 1
    31    19    20 1
    32    19    41 1
    33    19    42 1
    34    20    21 1
    35    20    22 1
    36    20    43 1
    37    21    44 1
    38    22    23 1
    39    22    24 1
    40    22    45 1
    41    23    46 1
    42    24    25 1
    43    24    26 1
    44    24    47 1
    45    25    48 1
    46    26    27 1
    47    26    49 1
    48    26    50 1
    49    27    28 1
    50    28    29 1
    51    28    30 1
    52    28    31 1
@<TRIPOS>SUBSTRUCTURE
     1 FMN         1 TEMP              0 ****  ****    0 ROOT
