@<TRIPOS>MOLECULE
FMP
   35    37     1     0     0
SMALL
bcc


@<TRIPOS>ATOM
      1 P            0.0000     0.0000     0.0000 p5         1 FMP       0.691900
      2 O1P          1.4790     0.0000     0.0000 o          1 FMP      -0.732500
      3 O2P         -0.5360     0.0000     1.5180 o          1 FMP      -0.732500
      4 O3P         -0.5370    -1.3140    -0.7590 o          1 FMP      -0.732500
      5 O5'         -0.5360     1.3140    -0.7580 os         1 FMP      -0.443200
      6 C5'         -0.0300     1.2580    -2.0920 c3         1 FMP       0.233400
      7 C4'         -0.5050     2.4850    -2.8710 c3         1 FMP       0.140100
      8 O4'         -0.0050     3.6940    -2.2600 os         1 FMP      -0.340600
      9 C3'          0.0930     2.4860    -4.2960 c3         1 FMP       0.131100
     10 O3'         -0.8510     1.9690    -5.2360 oh         1 FMP      -0.565800
     11 C2'          0.3810     3.9770    -4.5810 c3         1 FMP       0.123100
     12 O2'         -0.3740     4.4270    -5.7090 oh         1 FMP      -0.563800
     13 C1'         -0.0740     4.6990    -3.2940 c3         1 FMP       0.142800
     14 C9           0.8540     5.8420    -2.9760 cc         1 FMP       0.305300
     15 N8           2.1380     5.7440    -2.7730 nd         1 FMP      -0.610100
     16 N7           2.6710     7.0120    -2.5050 na         1 FMP       0.430900
     17 C6           1.5430     9.3030    -2.3560 ca         1 FMP       0.472200
     18 N6           2.6620    10.0610    -2.0590 nv         1 FMP      -0.649500
     19 C5           1.6460     7.9180    -2.5470 ca         1 FMP      -0.426800
     20 C4           0.4770     7.1950    -2.8440 ca         1 FMP       0.251000
     21 N3          -0.6820     7.8590    -2.9420 nb         1 FMP      -0.550000
     22 C2          -0.7250     9.1580    -2.7600 ca         1 FMP       0.562900
     23 N1           0.3500     9.8720    -2.4750 nb         1 FMP      -0.642000
     24 H5'1         1.0530     1.2440    -2.0670 h1         1 FMP       0.008200
     25 H5'2        -0.3910     0.3590    -2.5780 h1         1 FMP       0.008200
     26 H4'         -1.5870     2.5110    -2.9200 h1         1 FMP       0.025700
     27 H3'          1.0120     1.9140    -4.3190 h1         1 FMP       0.020700
     28 HO3'        -0.4410     1.2980    -5.7570 ho         1 FMP       0.370000
     29 H2'          1.4410     4.1310    -4.7430 h1         1 FMP       0.008700
     30 HO2'         0.2150     4.6800    -6.4010 ho         1 FMP       0.362000
     31 H1'         -1.0920     5.0530    -3.4040 h1         1 FMP       0.042700
     32 HN7          3.6310     7.2180    -2.3140 hn         1 FMP       0.146700
     33 HN61         3.1970    10.4740    -2.7970 hn         1 FMP       0.263300
     34 HN62         2.9150    10.2270    -1.1040 hn         1 FMP       0.263300
     35 H2          -1.6780     9.6650    -2.8480 h5         1 FMP      -0.013900
@<TRIPOS>BOND
     1     1     2 1   
     2     1     3 1   
     3     1     4 1   
     4     1     5 1   
     5     5     6 1   
     6     6     7 1   
     7     6    24 1   
     8     6    25 1   
     9     7     8 1   
    10     7     9 1   
    11     7    26 1   
    12     8    13 1   
    13     9    10 1   
    14     9    11 1   
    15     9    27 1   
    16    10    28 1   
    17    11    12 1   
    18    11    13 1   
    19    11    29 1   
    20    12    30 1   
    21    13    14 1   
    22    13    31 1   
    23    14    15 2   
    24    14    20 1   
    25    15    16 1   
    26    16    19 1   
    27    16    32 1   
    28    17    18 1   
    29    17    19 ar  
    30    17    23 ar  
    31    18    33 1   
    32    18    34 1   
    33    19    20 ar  
    34    20    21 ar  
    35    21    22 ar  
    36    22    23 ar  
    37    22    35 1   
@<TRIPOS>SUBSTRUCTURE
     1 FMP         1 TEMP              0 ****  ****    0 ROOT
