@<TRIPOS>MOLECULE
FMQ
   26    27     1     0     0
SMALL
bcc


@<TRIPOS>ATOM
      1 F12        -0.0450   -0.0330    0.0800 f         1 FMQ     -0.136900
      2 C9          1.3090   -0.0120    0.0460 ca        1 FMQ      0.122900
      3 C8          2.0430   -0.0570    1.2450 ca        1 FMQ     -0.157000
      4 C7          3.4320   -0.0430    1.2100 ca        1 FMQ     -0.105500
      5 C10         1.9790    0.0570   -1.1880 ca        1 FMQ     -0.157000
      6 C11         3.3680    0.0790   -1.2220 ca        1 FMQ     -0.105500
      7 C6          4.1110    0.0160   -0.0260 ca        1 FMQ      0.011800
      8 N3          5.5330    0.0310   -0.0610 na        1 FMQ      0.148300
      9 C2          6.3430   -0.6810   -0.9770 cc        1 FMQ     -0.077600
     10 C13         5.8610   -1.5570   -2.0550 c3        1 FMQ     -0.036800
     11 N4          6.2780    0.7200    0.8310 nc        1 FMQ     -0.506800
     12 C5          7.5740    0.4950    0.5200 cd        1 FMQ      0.340200
     13 C1          7.6720   -0.3900   -0.6220 cd        1 FMQ     -0.264600
     14 C14         8.8980   -0.8750   -1.2710 c3        1 FMQ      0.217700
     15 O15        10.0120   -0.5310   -0.4560 oh        1 FMQ     -0.594800
     16 H1          1.5120   -0.1020    2.2070 ha        1 FMQ      0.154000
     17 H2          3.9940   -0.0720    2.1570 ha        1 FMQ      0.156000
     18 H3          1.3990    0.1020   -2.1220 ha        1 FMQ      0.154000
     19 H4          3.8790    0.1530   -2.1950 ha        1 FMQ      0.156000
     20 H5          4.8790   -2.0300   -1.8020 hc        1 FMQ      0.055700
     21 H6          6.6140   -2.3670   -2.2320 hc        1 FMQ      0.055700
     22 H7          5.7410   -0.9750   -3.0050 hc        1 FMQ      0.055700
     23 H8          8.4050    0.9310    1.0770 h4        1 FMQ      0.059100
     24 H9          8.8560   -1.9940   -1.4010 h1        1 FMQ      0.026200
     25 H10         9.0160   -0.4020   -2.2870 h1        1 FMQ      0.026200
     26 H11        10.7920   -0.8570   -0.9190 ho        1 FMQ      0.402000
@<TRIPOS>BOND
     1    1    2 1   
     2    2    3 ar  
     3    2    5 ar  
     4    3    4 ar  
     5    3   16 1   
     6    4    7 ar  
     7    4   17 1   
     8    5    6 ar  
     9    5   18 1   
    10    6    7 ar  
    11    6   19 1   
    12    7    8 1   
    13    8    9 1   
    14    8   11 1   
    15    9   10 1   
    16    9   13 2   
    17   10   20 1   
    18   10   21 1   
    19   10   22 1   
    20   11   12 2   
    21   12   13 1   
    22   12   23 1   
    23   13   14 1   
    24   14   15 1   
    25   14   24 1   
    26   14   25 1   
    27   15   26 1   
@<TRIPOS>SUBSTRUCTURE
     1 FMQ         1 TEMP              0 ****  ****    0 ROOT
