@<TRIPOS>MOLECULE
molecule
   26    27     1     0     0
SMALL
bcc


@<TRIPOS>ATOM
      1 F12          0.0000     0.0000     0.0000 f          1 FMQ      -0.137900
      2 C9           1.3510     0.0000     0.0000 ca         1 FMQ       0.126900
      3 C8           2.0420     0.0000     1.2000 ca         1 FMQ      -0.154000
      4 C7           3.4240    -0.0060     1.2010 ca         1 FMQ      -0.111500
      5 C10          2.0420    -0.0060    -1.2000 ca         1 FMQ      -0.154000
      6 C11          3.4240    -0.0060    -1.2020 ca         1 FMQ      -0.111500
      7 C6           4.1180    -0.0120    -0.0010 ca         1 FMQ       0.023800
      8 N3           5.5210    -0.0170    -0.0010 na         1 FMQ       0.143300
      9 C2           6.3150    -0.6440    -0.8980 cc         1 FMQ      -0.060600
     10 C13          5.8500    -1.4680    -2.0720 c3         1 FMQ      -0.032800
     11 N4           6.3490     0.6320     0.9250 nc         1 FMQ      -0.509800
     12 C5           7.5930     0.3970     0.5970 cd         1 FMQ       0.372200
     13 C1           7.5990    -0.4020    -0.5520 cd         1 FMQ      -0.303600
     14 C14          8.8230    -0.9060    -1.2740 c3         1 FMQ       0.227700
     15 O15          9.9960    -0.4380    -0.6070 oh         1 FMQ      -0.609800
     16 H1           1.5000     0.0050     2.1380 ha         1 FMQ       0.152000
     17 H2           3.9650    -0.0080     2.1390 ha         1 FMQ       0.154500
     18 H3           1.4990    -0.0020    -2.1380 ha         1 FMQ       0.152000
     19 H4           3.9640    -0.0100    -2.1410 ha         1 FMQ       0.154500
     20 H5           5.6130    -0.8130    -2.9020 hc         1 FMQ       0.054033
     21 H6           6.6360    -2.1530    -2.3660 hc         1 FMQ       0.054033
     22 H7           4.9670    -2.0300    -1.7920 hc         1 FMQ       0.054033
     23 H8           8.4680     0.7630     1.1210 h4         1 FMQ       0.066100
     24 H9           8.8170    -0.5400    -2.2940 h1         1 FMQ       0.023700
     25 H10          8.8190    -1.9890    -1.2790 h1         1 FMQ       0.023700
     26 H11         10.7610    -0.7450    -1.0650 ho         1 FMQ       0.405000
@<TRIPOS>BOND
     1    15    14 1
     2    14    13 1
     3    10     9 1
     4    13     9 2
     5    13    12 1
     6     9     8 1
     7    12    11 2
     8     8    11 1
     9     8     7 1
    10     4     7 ar
    11     4     3 ar
    12     7     6 ar
    13     3     2 ar
    14     6     5 ar
    15     2     5 ar
    16     2     1 1
    17     3    16 1
    18     4    17 1
    19     5    18 1
    20     6    19 1
    21    10    20 1
    22    10    21 1
    23    10    22 1
    24    12    23 1
    25    14    24 1
    26    14    25 1
    27    15    26 1
@<TRIPOS>SUBSTRUCTURE
     1 FMQ         1 TEMP              0 ****  ****    0 ROOT
