@<TRIPOS>MOLECULE
molecule
   10     9     1     0     0
SMALL
bcc


@<TRIPOS>ATOM
      1 C4           0.0000     0.0000     0.0000 c          1 FMR       0.904800
      2 C3           1.4780     0.0000     0.0000 ce         1 FMR      -0.243200
      3 C2           2.1490     0.0000     1.1620 cf         1 FMR      -0.243200
      4 C1           3.6260    -0.0010     1.1620 c          1 FMR       0.904800
      5 O4A         -0.6110     0.0010     1.0590 o          1 FMR      -0.885050
      6 O4B         -0.6110     0.0050    -1.0580 o          1 FMR      -0.885050
      7 O1A          4.2370    -0.0020     0.1030 o          1 FMR      -0.885050
      8 O1B          4.2380    -0.0010     2.2200 o          1 FMR      -0.885050
      9 H3           2.0190    -0.0010    -0.9380 ha         1 FMR       0.109000
     10 H2           1.6070     0.0000     2.1000 ha         1 FMR       0.109000
@<TRIPOS>BOND
     1     1     2 1
     2     1     5 1
     3     1     6 1
     4     2     3 2
     5     2     9 1
     6     3     4 1
     7     3    10 1
     8     4     7 1
     9     4     8 1
@<TRIPOS>SUBSTRUCTURE
     1 FMR         1 TEMP              0 ****  ****    0 ROOT
