@<TRIPOS>MOLECULE
FMR
   10     9     1     0     0
SMALL
bcc


@<TRIPOS>ATOM
      1 C4          0.1780   -0.2940    0.0670 c         1 FMR      0.916800
      2 C3          1.1620    0.7770    0.4440 ce        1 FMR     -0.207200
      3 C2          2.4390    0.7760    0.8100 cf        1 FMR     -0.207200
      4 C1          3.4680   -0.2970    1.0230 c         1 FMR      0.916800
      5 O4A        -0.4480   -0.9250    0.9730 o         1 FMR     -0.876800
      6 O4B        -0.1140   -0.4410   -1.1630 o         1 FMR     -0.876800
      7 O1A         4.1180   -0.7560    0.0340 o         1 FMR     -0.876800
      8 O1B         3.7700   -0.6160    2.2180 o         1 FMR     -0.876800
      9 H3          0.6570    1.7640    0.3770 ha        1 FMR      0.045000
     10 H2          2.9010    1.7630    1.0270 ha        1 FMR      0.045000
@<TRIPOS>BOND
     1    1    2 1   
     2    1    5 1   
     3    1    6 1   
     4    2    3 2   
     5    2    9 1   
     6    3    4 1   
     7    3   10 1   
     8    4    7 1   
     9    4    8 1   
@<TRIPOS>SUBSTRUCTURE
     1 FMR         1 TEMP              0 ****  ****    0 ROOT
