@<TRIPOS>MOLECULE
FMS
   11    10     1     0     0
SMALL
bcc


@<TRIPOS>ATOM
      1 C            0.0000     0.0000     0.0000 c3         1 FMS       0.625700
      2 F1           1.3990     0.0000     0.0000 f          1 FMS      -0.152300
      3 F2          -0.4670     0.0000     1.3180 f          1 FMS      -0.152300
      4 F3          -0.4660    -1.1410    -0.6600 f          1 FMS      -0.152300
      5 S           -0.6060     1.4800    -0.8550 s6         1 FMS       0.875900
      6 N           -2.2510     1.3230    -0.7640 nz         1 FMS      -0.154500
      7 O1          -0.3590     1.4150    -2.2530 o          1 FMS      -0.439800
      8 O2          -0.3590     2.6580    -0.0990 o          1 FMS      -0.439800
      9 HN1         -2.5310     1.2940     0.1960 hn         1 FMS       0.329800
     10 HN2         -2.6860     2.1030    -1.2150 hn         1 FMS       0.329800
     11 HN3         -2.5310     0.4760    -1.2190 hn         1 FMS       0.329800
@<TRIPOS>BOND
     1     1     2 1   
     2     1     3 1   
     3     1     4 1   
     4     1     5 1   
     5     5     6 1   
     6     5     7 2   
     7     5     8 2   
     8     6     9 1   
     9     6    10 1   
    10     6    11 1   
@<TRIPOS>SUBSTRUCTURE
     1 FMS         1 TEMP              0 ****  ****    0 ROOT
