@<TRIPOS>MOLECULE
FMT
    4     3     1     0     0
SMALL
bcc


@<TRIPOS>ATOM
      1 C          -0.0080   -0.0000    0.0450 c         1 FMT      0.904400
      2 O1          1.2560    0.0000   -0.0080 o         1 FMT     -0.878300
      3 O2         -0.6720    0.0000    1.1210 o         1 FMT     -0.878300
      4 H          -0.5810   -0.0000   -0.9340 h5        1 FMT     -0.148800
@<TRIPOS>BOND
     1    1    2 1   
     2    1    3 1   
     3    1    4 1   
@<TRIPOS>SUBSTRUCTURE
     1 FMT         1 TEMP              0 ****  ****    0 ROOT
