@<TRIPOS>MOLECULE
molecule
    4     3     1     0     0
SMALL
bcc


@<TRIPOS>ATOM
      1 C            0.0000     0.0000     0.0000 c          1 FMT       0.888400
      2 O1           1.2080     0.0000     0.0000 o          1 FMT      -0.882800
      3 O2          -0.6710     0.0000     1.1620 o          1 FMT      -0.882800
      4 H           -0.5420     0.0000    -0.9380 h5         1 FMT      -0.122800
@<TRIPOS>BOND
     1     1     2 1
     2     1     3 1
     3     1     4 1
@<TRIPOS>SUBSTRUCTURE
     1 FMT         1 TEMP              0 ****  ****    0 ROOT
