@<TRIPOS>MOLECULE
FMV
   72    75     1     0     0
SMALL
bcc


@<TRIPOS>ATOM
      1 C1          0.4020   -0.4790   -0.3620 c3        1 FMV      0.186300
      2 O1         -0.0820    0.8340   -0.0930 oh        1 FMV     -0.588800
      3 C2          1.9190   -0.5560   -0.2310 c3        1 FMV     -0.146400
      4 C3          2.3490   -0.3890    1.2220 c3        1 FMV      0.146100
      5 O3          3.7570   -0.5420    1.3560 oh        1 FMV     -0.599800
      6 C4          1.7140   -1.4640    2.1000 c3        1 FMV     -0.036200
      7 C5          0.2280   -1.4490    1.9670 ce        1 FMV     -0.072200
      8 C6         -0.5510   -1.4830    3.0680 cf        1 FMV     -0.110000
      9 C7         -1.9950   -1.4380    3.0630 cf        1 FMV     -0.147000
     10 C8         -2.7970   -1.8830    4.0450 c2        1 FMV     -0.084400
     11 C9         -2.3340   -2.5950    5.2740 c3        1 FMV     -0.044200
     12 C10        -0.2870   -1.4160    0.5990 ce        1 FMV     -0.070200
     13 C11        -2.9930   -2.1050    6.5530 c3        1 FMV     -0.073400
     14 C12        -4.4960   -1.9120    6.4450 c3        1 FMV     -0.067400
     15 C13        -4.8440   -1.0600    5.2340 c3        1 FMV     -0.040000
     16 C14        -4.2800   -1.7990    3.9870 c3        1 FMV     -0.034500
     17 C15        -4.9870   -1.1330    2.8150 c3        1 FMV     -0.074400
     18 C16        -6.3760   -0.7860    3.3550 c3        1 FMV     -0.078400
     19 C17        -6.3460   -0.9820    4.8840 c3        1 FMV     -0.054700
     20 C18        -4.2460    0.3300    5.3670 c3        1 FMV     -0.084100
     21 C19        -1.3020   -2.1820    0.1810 c2        1 FMV     -0.192000
     22 C20        -7.1580    0.0970    5.5980 c3        1 FMV     -0.085000
     23 C21        -7.2080   -0.1160    7.1010 c3        1 FMV     -0.090100
     24 C22        -8.5370    0.1450    5.0550 cc        1 FMV      0.254000
     25 O22        -9.3410   -0.9860    5.2580 os        1 FMV     -0.363800
     26 C23        -9.2490    1.1170    4.3760 cd        1 FMV     -0.267300
     27 C24       -10.5680    0.5790    4.1350 cd        1 FMV     -0.222300
     28 C25       -10.5840   -0.6890    4.6810 cc        1 FMV      0.239000
     29 C26       -11.6170   -1.7590    4.7760 c3        1 FMV      0.129500
     30 O26       -12.7800   -1.2420    4.1200 oh        1 FMV     -0.592800
     31 C27       -11.1390   -3.0240    4.0650 c3        1 FMV     -0.122100
     32 C28       -11.9360   -2.0610    6.2380 c3        1 FMV     -0.122100
     33 H1          0.1190   -0.7490   -1.4230 h1        1 FMV      0.034700
     34 HO1         0.4100    1.4310   -0.6700 ho        1 FMV      0.396000
     35 H2          2.3930    0.2430   -0.8590 hc        1 FMV      0.052700
     36 H2A         2.2750   -1.5470   -0.6120 hc        1 FMV      0.052700
     37 H3          2.0440    0.6330    1.5860 h1        1 FMV      0.048700
     38 HO3         4.1630    0.1450    0.8150 ho        1 FMV      0.398000
     39 H4          2.0290   -1.2950    3.1630 hc        1 FMV      0.062200
     40 H4A         2.1080   -2.4700    1.7900 hc        1 FMV      0.062200
     41 H6         -0.0660   -1.5140    4.0610 ha        1 FMV      0.124000
     42 H7         -2.4450   -0.9780    2.1620 ha        1 FMV      0.137000
     43 H9         -2.5650   -3.6880    5.1400 hc        1 FMV      0.047200
     44 H9A        -1.2220   -2.5090    5.3930 hc        1 FMV      0.047200
     45 H11        -2.7800   -2.8450    7.3700 hc        1 FMV      0.040200
     46 H11A       -2.5220   -1.1330    6.8570 hc        1 FMV      0.040200
     47 H12        -4.8720   -1.4290    7.3840 hc        1 FMV      0.042200
     48 H12A       -5.0000   -2.9100    6.3560 hc        1 FMV      0.042200
     49 H14        -4.6570   -2.8660    4.0320 hc        1 FMV      0.053700
     50 H15        -5.0490   -1.8170    1.9350 hc        1 FMV      0.046700
     51 H15A       -4.4490   -0.2070    2.4940 hc        1 FMV      0.046700
     52 H16        -6.6390    0.2700    3.0990 hc        1 FMV      0.046700
     53 H16A       -7.1550   -1.4470    2.9040 hc        1 FMV      0.046700
     54 H17        -6.8130   -1.9760    5.1330 hc        1 FMV      0.057700
     55 H18        -3.1310    0.2840    5.3220 hc        1 FMV      0.038367
     56 H18A       -4.5440    0.7920    6.3390 hc        1 FMV      0.038367
     57 H18B       -4.5980    0.9860    4.5330 hc        1 FMV      0.038367
     58 H19        -1.6810   -2.1460   -0.8480 ha        1 FMV      0.120500
     59 H19A       -1.8080   -2.8950    0.8460 ha        1 FMV      0.120500
     60 H20        -6.6930    1.1040    5.3900 hc        1 FMV      0.067700
     61 H21        -7.4780   -1.1730    7.3360 hc        1 FMV      0.041700
     62 H21A       -7.9730    0.5550    7.5590 hc        1 FMV      0.041700
     63 H21B       -6.2160    0.1170    7.5580 hc        1 FMV      0.041700
     64 H23        -8.8990    2.0990    4.0740 ha        1 FMV      0.160000
     65 H24       -11.3870    1.0760    3.6230 ha        1 FMV      0.171000
     66 HO26      -13.4500   -1.9330    4.1820 ho        1 FMV      0.405000
     67 H27       -11.0090   -2.8220    2.9750 hc        1 FMV      0.049367
     68 H27A      -11.8880   -3.8410    4.1930 hc        1 FMV      0.049367
     69 H27B      -10.1630   -3.3490    4.4960 hc        1 FMV      0.049367
     70 H28       -12.6630   -2.9050    6.3050 hc        1 FMV      0.049367
     71 H28A      -12.3830   -1.1610    6.7230 hc        1 FMV      0.049367
     72 H28B      -10.9990   -2.3390    6.7760 hc        1 FMV      0.049367
@<TRIPOS>BOND
     1    1    2 1
     2    1    3 1
     3    1   12 1
     4    1   33 1
     5    2   34 1
     6    3    4 1
     7    3   35 1
     8    3   36 1
     9    4    5 1
    10    4    6 1
    11    4   37 1
    12    5   38 1
    13    6    7 1
    14    6   39 1
    15    6   40 1
    16    7    8 2
    17    7   12 1
    18    8    9 1
    19    8   41 1
    20    9   10 2
    21    9   42 1
    22   10   11 1
    23   10   16 1
    24   11   13 1
    25   11   43 1
    26   11   44 1
    27   12   21 2
    28   13   14 1
    29   13   45 1
    30   13   46 1
    31   14   15 1
    32   14   47 1
    33   14   48 1
    34   15   16 1
    35   15   19 1
    36   15   20 1
    37   16   17 1
    38   16   49 1
    39   17   18 1
    40   17   50 1
    41   17   51 1
    42   18   19 1
    43   18   52 1
    44   18   53 1
    45   19   22 1
    46   19   54 1
    47   20   55 1
    48   20   56 1
    49   20   57 1
    50   21   58 1
    51   21   59 1
    52   22   23 1
    53   22   24 1
    54   22   60 1
    55   23   61 1
    56   23   62 1
    57   23   63 1
    58   24   25 1
    59   24   26 2
    60   25   28 1
    61   26   27 1
    62   26   64 1
    63   27   28 2
    64   27   65 1
    65   28   29 1
    66   29   30 1
    67   29   31 1
    68   29   32 1
    69   30   66 1
    70   31   67 1
    71   31   68 1
    72   31   69 1
    73   32   70 1
    74   32   71 1
    75   32   72 1
@<TRIPOS>SUBSTRUCTURE
     1 FMV         1 TEMP              0 ****  ****    0 ROOT
