@<TRIPOS>MOLECULE
molecule
   63    66     1     0     0
SMALL
bcc


@<TRIPOS>ATOM
      1 C12          0.0000     0.0000     0.0000 ca         1 FMW       0.661900
      2 C13          0.0320    -0.0040    -2.4690 c3         1 FMW       0.248800
      3 C8           0.0510     0.0050     2.4310 ca         1 FMW      -0.264600
      4 C9          -0.6420     0.0090     3.6540 ca         1 FMW       0.499200
      5 C10          1.4530    -0.0010     2.3480 ca         1 FMW      -0.287300
      6 C11          2.0360     0.0000     1.1160 ca         1 FMW       0.465600
      7 C14         -0.9660    -0.0010    -3.6290 c3         1 FMW      -0.091000
      8 C15         -1.8400     1.2510    -3.5480 c3         1 FMW      -0.083433
      9 N3           1.3180     0.0000     0.0000 nb         1 FMW      -0.769000
     10 C1          -6.5490    -0.3730     5.1570 ca         1 FMW      -0.163000
     11 C2          -5.9960     0.4150     6.1670 ca         1 FMW      -0.100500
     12 C3          -4.7800     1.0670     5.9540 ca         1 FMW      -0.155000
     13 C4          -4.1290     0.9340     4.7460 ca         1 FMW      -0.099000
     14 C7          -0.6990     0.0050     1.2270 ca         1 FMW       0.322300
     15 N1          -2.0320     0.0100     1.3000 nb         1 FMW      -0.779000
     16 N2          -1.9590     0.0150     3.6260 nb         1 FMW      -0.764000
     17 C5          -4.6790     0.1520     3.7390 ca         1 FMW       0.148600
     18 C6          -2.6300     0.0140     2.4760 ca         1 FMW       0.917900
     19 C23         -8.1150    -2.7290     2.0270 c3         1 FMW      -0.093100
     20 C22         -7.6710    -1.9190     3.2470 c3         1 FMW       0.134400
     21 C           -5.8900    -0.5070     3.9500 ca         1 FMW       0.110100
     22 C19         -6.6940     0.5570     7.4630 cc         1 FMW       0.421000
     23 N7          -7.9640     0.3070     7.6980 nd         1 FMW      -0.352000
     24 N6          -8.2300     0.5390     8.9340 nd         1 FMW      -0.354000
     25 C20         -7.1560     0.9470     9.5550 cc         1 FMW       0.352400
     26 N5          -6.1420     0.9680     8.6460 na         1 FMW      -0.326700
     27 C21         -4.7490     1.3530     8.8850 c3         1 FMW       0.030600
     28 N           -4.0150     0.0200     2.5160 nu         1 FMW      -0.745300
     29 C18          3.5400     0.0010     1.0190 c3         1 FMW      -0.141400
     30 N4          -0.6970     0.0010    -1.1980 nu         1 FMW      -0.890900
     31 C17         -0.2050    -0.0070    -4.9560 c3         1 FMW      -0.083433
     32 C16         -1.8510    -1.2470    -3.5430 c3         1 FMW      -0.083433
     33 H1           0.6590     0.8780    -2.5300 h1         1 FMW       0.052700
     34 H2           0.6510    -0.8910    -2.5270 h1         1 FMW       0.052700
     35 H3          -0.1070     0.0100     4.5960 h4         1 FMW       0.036100
     36 H4           2.0590    -0.0010     3.2460 ha         1 FMW       0.138000
     37 H5          -2.5890     1.1190    -2.7760 hc         1 FMW       0.037922
     38 H6          -1.2220     2.1080    -3.3080 hc         1 FMW       0.037922
     39 H7          -2.3280     1.4140    -4.5010 hc         1 FMW       0.037922
     40 H8          -7.4910    -0.8820     5.3200 ha         1 FMW       0.163000
     41 H9          -4.3490     1.6780     6.7380 ha         1 FMW       0.132000
     42 H10         -3.1870     1.4430     4.5820 ha         1 FMW       0.161000
     43 H11         -7.3650    -3.4780     1.7990 hc         1 FMW       0.048033
     44 H12         -8.2340    -2.0680     1.1780 hc         1 FMW       0.048033
     45 H13         -9.0580    -3.2170     2.2410 hc         1 FMW       0.048033
     46 H14         -8.4220    -1.1720     3.4770 h1         1 FMW       0.041200
     47 H15         -7.5480    -2.5810     4.0960 h1         1 FMW       0.041200
     48 H16         -7.0840     1.2140    10.6020 h5         1 FMW       0.071100
     49 H17         -4.0890     0.6230     8.4320 h1         1 FMW       0.059367
     50 H18         -4.5640     2.3270     8.4470 h1         1 FMW       0.059367
     51 H19         -4.5640     1.3950     9.9510 h1         1 FMW       0.059367
     52 H20         -4.5400    -0.0270     1.6650 hn         1 FMW       0.475800
     53 H21          3.9300     0.9090     1.4620 hc         1 FMW       0.051033
     54 H22          3.8340    -0.0480    -0.0230 hc         1 FMW       0.051033
     55 H23          3.9360    -0.8580     1.5460 hc         1 FMW       0.051033
     56 H24         -1.6980    -0.0250    -1.1950 hn         1 FMW       0.466800
     57 H25          0.4100    -0.8960    -5.0160 hc         1 FMW       0.037922
     58 H26         -0.9120    -0.0010    -5.7770 hc         1 FMW       0.037922
     59 H27          0.4240     0.8730    -5.0150 hc         1 FMW       0.037922
     60 H28         -2.3230    -1.4210    -4.5020 hc         1 FMW       0.037922
     61 H29         -2.6120    -1.0970    -2.7880 hc         1 FMW       0.037922
     62 H30         -1.2430    -2.1040    -3.2780 hc         1 FMW       0.037922
     63 O           -6.4280    -1.2730     2.9630 os         1 FMW      -0.336900
@<TRIPOS>BOND
     1    29     6 1
     2    32     7 1
     3    31     7 1
     4     6     9 ar
     5     6     5 ar
     6     9     1 ar
     7     7     2 1
     8     7     8 1
     9     2    30 1
    10     5     3 ar
    11     1    30 1
    12     1    14 ar
    13     3    14 ar
    14     3     4 ar
    15    14    15 ar
    16     4    16 ar
    17    15    18 ar
    18    16    18 ar
    19    18    28 1
    20    13    12 ar
    21    13    17 ar
    22    12    11 ar
    23    27    26 1
    24    28    17 1
    25    17    21 ar
    26    26    22 1
    27    26    25 1
    28    11    22 1
    29    11    10 ar
    30    22    23 2
    31    25    24 2
    32    21    10 ar
    33    21    63 1
    34    23    24 1
    35    63    20 1
    36    20    19 1
    37     2    33 1
    38     2    34 1
    39     4    35 1
    40     5    36 1
    41     8    37 1
    42     8    38 1
    43     8    39 1
    44    10    40 1
    45    12    41 1
    46    13    42 1
    47    19    43 1
    48    19    44 1
    49    19    45 1
    50    20    46 1
    51    20    47 1
    52    25    48 1
    53    27    49 1
    54    27    50 1
    55    27    51 1
    56    28    52 1
    57    29    53 1
    58    29    54 1
    59    29    55 1
    60    30    56 1
    61    31    57 1
    62    31    58 1
    63    31    59 1
    64    32    60 1
    65    32    61 1
    66    32    62 1
@<TRIPOS>SUBSTRUCTURE
     1 FMW         1 TEMP              0 ****  ****    0 ROOT
