@<TRIPOS>MOLECULE
FMX
   46    49     1     0     0
SMALL
bcc


@<TRIPOS>ATOM
      1 O6           0.0000     0.0000     0.0000 o          1 FMX      -0.584500
      2 C6           1.2130     0.0000     0.0000 c          1 FMX       0.607500
      3 N2           2.0280     0.0000     1.0730 n          1 FMX      -0.076800
      4 N1           1.5850    -0.0020     2.4020 nu         1 FMX      -0.260600
      5 C21          1.3650     1.2070     3.0660 ca         1 FMX       0.053600
      6 C22          0.9260     1.2080     4.3840 ca         1 FMX      -0.162500
      7 C23          0.7090     2.4040     5.0370 ca         1 FMX      -0.050500
      8 C24          0.9270     3.6010     4.3820 ca         1 FMX      -0.143000
      9 C25          1.3650     3.6050     3.0700 ca         1 FMX      -0.050500
     10 C26          1.5880     2.4110     2.4120 ca         1 FMX      -0.162500
     11 C3           3.3140     0.0010     0.7070 c          1 FMX       0.770600
     12 O4           3.4670     0.0020    -0.6280 os         1 FMX      -0.351900
     13 O3           4.2400     0.0010     1.4920 o          1 FMX      -0.620500
     14 C5           2.1270     0.0010    -1.2080 c3         1 FMX       0.123100
     15 C7           1.9060     1.2590    -2.0480 c3         1 FMX       0.006900
     16 C8           1.9120    -1.2350    -2.0410 ca         1 FMX      -0.134300
     17 C9           2.9680    -1.7910    -2.7370 ca         1 FMX      -0.071000
     18 C10          2.7730    -2.9250    -3.5020 ca         1 FMX      -0.122000
     19 C11          1.5160    -3.5050    -3.5710 ca         1 FMX       0.113100
     20 C12          0.4580    -2.9460    -2.8700 ca         1 FMX      -0.122000
     21 C13          0.6590    -1.8140    -2.1040 ca         1 FMX      -0.071000
     22 O14          1.3220    -4.6210    -4.3230 os         1 FMX      -0.201200
     23 C15          0.8740    -4.2030    -5.5360 ca         1 FMX       0.125100
     24 C16          0.8150    -2.8500    -5.8260 ca         1 FMX      -0.174000
     25 C17          0.3590    -2.4290    -7.0600 ca         1 FMX      -0.060000
     26 C18         -0.0380    -3.3560    -8.0050 ca         1 FMX      -0.137000
     27 C19          0.0200    -4.7070    -7.7180 ca         1 FMX      -0.060000
     28 C20          0.4800    -5.1330    -6.4880 ca         1 FMX      -0.174000
     29 HN11         1.4300    -0.8690     2.8780 hn         1 FMX       0.317800
     30 H221         0.7540     0.2700     4.8990 ha         1 FMX       0.105500
     31 H231         0.3660     2.4050     6.0650 ha         1 FMX       0.101500
     32 H241         0.7540     4.5390     4.8970 ha         1 FMX       0.106000
     33 H251         1.5370     4.5440     2.5590 ha         1 FMX       0.101500
     34 H261         1.9300     2.4140     1.3840 ha         1 FMX       0.105500
     35 H71          2.3550     1.1250    -3.0250 hc         1 FMX       0.026033
     36 H72          2.3640     2.1080    -1.5540 hc         1 FMX       0.026033
     37 H73          0.8440     1.4370    -2.1610 hc         1 FMX       0.026033
     38 H91          3.9510    -1.3370    -2.6830 ha         1 FMX       0.132500
     39 H101         3.6020    -3.3600    -4.0470 ha         1 FMX       0.124000
     40 H121        -0.5250    -3.3980    -2.9210 ha         1 FMX       0.124000
     41 H131        -0.1680    -1.3770    -1.5570 ha         1 FMX       0.132500
     42 H161         1.1260    -2.1230    -5.0860 ha         1 FMX       0.125500
     43 H171         0.3130    -1.3700    -7.2870 ha         1 FMX       0.102000
     44 H181        -0.3970    -3.0230    -8.9710 ha         1 FMX       0.105000
     45 H191        -0.2900    -5.4320    -8.4620 ha         1 FMX       0.102000
     46 H201         0.5250    -6.1920    -6.2630 ha         1 FMX       0.125500
@<TRIPOS>BOND
     1     1     2 2   
     2     2     3 1   
     3     2    14 1   
     4     3     4 1   
     5     3    11 1   
     6     4     5 1   
     7     4    29 1   
     8     5     6 ar  
     9     5    10 ar  
    10     6     7 ar  
    11     6    30 1   
    12     7     8 ar  
    13     7    31 1   
    14     8     9 ar  
    15     8    32 1   
    16     9    10 ar  
    17     9    33 1   
    18    10    34 1   
    19    11    12 1   
    20    11    13 2   
    21    12    14 1   
    22    14    15 1   
    23    14    16 1   
    24    15    35 1   
    25    15    36 1   
    26    15    37 1   
    27    16    17 ar  
    28    16    21 ar  
    29    17    18 ar  
    30    17    38 1   
    31    18    19 ar  
    32    18    39 1   
    33    19    20 ar  
    34    19    22 1   
    35    20    21 ar  
    36    20    40 1   
    37    21    41 1   
    38    22    23 1   
    39    23    24 ar  
    40    23    28 ar  
    41    24    25 ar  
    42    24    42 1   
    43    25    26 ar  
    44    25    43 1   
    45    26    27 ar  
    46    26    44 1   
    47    27    28 ar  
    48    27    45 1   
    49    28    46 1   
@<TRIPOS>SUBSTRUCTURE
     1 FMX         1 TEMP              0 ****  ****    0 ROOT
