@<TRIPOS>MOLECULE
molecule
   64    69     1     0     0
SMALL
bcc


@<TRIPOS>ATOM
      1 C01          0.0000     0.0000     0.0000 ca         1 FMY      -0.120500
      2 C02          0.0080     0.0000     2.4190 ca         1 FMY      -0.120500
      3 C03          1.3780     0.0000     0.0000 ca         1 FMY      -0.132500
      4 C04          1.3860    -0.0010     2.4100 ca         1 FMY      -0.132500
      5 C05          4.2800     0.0940     0.1210 cc         1 FMY       0.461400
      6 C06         -2.5910    -4.2160     5.4160 ca         1 FMY      -0.172000
      7 C07         -0.4890    -5.0470     6.2200 ca         1 FMY      -0.205000
      8 C08         -0.5250    -3.3410     4.5240 ca         1 FMY      -0.112000
      9 C09          3.6600    -5.1480     6.1980 c3         1 FMY       0.137400
     10 C10          3.6340    -2.8540     5.5110 c3         1 FMY       0.137400
     11 C11          9.3320    -0.0510     2.0140 c3         1 FMY       0.132400
     12 C12          8.3030    -1.4170     3.6900 c3         1 FMY       0.132400
     13 C13          2.1320    -5.1490     6.2980 c3         1 FMY       0.123300
     14 C14          2.1060    -2.8320     5.6030 c3         1 FMY       0.123300
     15 C15          8.0290    -0.0350     1.2100 c3         1 FMY       0.171800
     16 C16          6.9890    -1.4140     2.9040 c3         1 FMY       0.171800
     17 N17          5.5210     0.0580     0.5340 nd         1 FMY      -0.830000
     18 N18          4.3210    -0.0980     2.3160 nc         1 FMY      -0.549800
     19 O20          4.1470    -3.8240     6.4280 os         1 FMY      -0.423600
     20 O21          9.3960    -1.2540     2.7840 os         1 FMY      -0.425600
     21 C22         -1.8720    -5.0590     6.2450 ca         1 FMY       0.150900
     22 C23         -0.6970     0.0010     1.2120 ca         1 FMY       0.195400
     23 C24         -1.9190    -3.3530     4.5500 ca         1 FMY      -0.104900
     24 C25          0.1880    -4.1890     5.3600 ca         1 FMY       0.123600
     25 C26          2.0750     0.0000     1.2030 ca         1 FMY       0.002800
     26 C27          5.5530    -0.0590     1.8650 cd         1 FMY       0.805900
     27 N28          1.5840    -4.1790     5.3380 nh         1 FMY      -0.589000
     28 N29          6.8900    -0.1690     2.1290 nh         1 FMY      -0.732300
     29 N30          3.4770     0.0000     1.1980 na         1 FMY       0.025500
     30 C31         -2.7230    -0.8100     2.0300 cd         1 FMY       0.847200
     31 N31         -4.0980    -0.8040     2.0280 na         1 FMY      -0.674000
     32 N32         -2.0460    -1.6310     2.8390 nd         1 FMY      -0.738000
     33 C33         -2.6850    -2.4500     3.6600 cc         1 FMY       0.609200
     34 C34         -4.0960    -2.4630     3.6870 cc         1 FMY      -0.392600
     35 C35         -4.7840    -1.6370     2.8630 cd         1 FMY       0.134000
     36 H01         -0.5420     0.0000    -0.9380 ha         1 FMY       0.146000
     37 H02         -0.5290     0.0000     3.3600 ha         1 FMY       0.146000
     38 H03          1.9190     0.0000    -0.9390 ha         1 FMY       0.140000
     39 H04          1.9330    -0.0010     3.3450 ha         1 FMY       0.140000
     40 H05          3.9540     0.1850    -0.9080 h5         1 FMY       0.068100
     41 H06         -3.6740    -4.2280     5.4380 ha         1 FMY       0.146000
     42 H07          0.0690    -5.7080     6.8720 ha         1 FMY       0.155000
     43 H08          0.0000    -2.6720     3.8530 ha         1 FMY       0.172000
     44 H09          4.0700    -5.8180     6.9450 h1         1 FMY       0.060200
     45 H09A         3.9570    -5.4750     5.2090 h1         1 FMY       0.060200
     46 H10          3.9310    -3.1180     4.5030 h1         1 FMY       0.060200
     47 H10A         4.0250    -1.8760     5.7650 h1         1 FMY       0.060200
     48 H11          9.3570     0.8040     2.6780 h1         1 FMY       0.055200
     49 H11A        10.1750    -0.0130     1.3350 h1         1 FMY       0.055200
     50 H12          8.4060    -2.3590     4.2150 h1         1 FMY       0.055200
     51 H12A         8.2990    -0.5990     4.4010 h1         1 FMY       0.055200
     52 H13          1.8360    -4.8700     7.3020 h1         1 FMY       0.054200
     53 H13A         1.7560    -6.1380     6.0660 h1         1 FMY       0.054200
     54 H14          1.8090    -2.5190     6.5970 h1         1 FMY       0.054200
     55 H14A         1.7110    -2.1410     4.8680 h1         1 FMY       0.054200
     56 H15          8.0260    -0.8620     0.5100 h1         1 FMY       0.055700
     57 H15A         7.9490     0.9010     0.6710 h1         1 FMY       0.055700
     58 H16          6.9710    -2.2610     2.2280 h1         1 FMY       0.055700
     59 H16A         6.1560    -1.4770     3.5930 h1         1 FMY       0.055700
     60 HN31        -4.5950    -0.1890     1.4150 hn         1 FMY       0.470800
     61 H34         -4.6230    -3.1310     4.3570 ha         1 FMY       0.160000
     62 H35         -5.8670    -1.6360     2.8680 h4         1 FMY       0.167000
     63 N19         -2.0630     0.0010     1.2170 ne         1 FMY      -0.704100
     64 F37         -2.5240    -5.8940     7.0830 f          1 FMY      -0.137900
@<TRIPOS>BOND
     1     1     3 ar
     2     1    22 ar
     3     1    36 1
     4     2     4 ar
     5     2    22 ar
     6     2    37 1
     7     3    25 ar
     8     3    38 1
     9     4    25 ar
    10     4    39 1
    11     5    17 2
    12     5    29 1
    13     5    40 1
    14     6    21 ar
    15     6    23 ar
    16     6    41 1
    17     7    21 ar
    18     7    24 ar
    19     7    42 1
    20     8    23 ar
    21     8    24 ar
    22     8    43 1
    23     9    13 1
    24     9    19 1
    25     9    44 1
    26     9    45 1
    27    10    14 1
    28    10    19 1
    29    10    46 1
    30    10    47 1
    31    11    15 1
    32    11    20 1
    33    11    48 1
    34    11    49 1
    35    12    16 1
    36    12    20 1
    37    12    50 1
    38    12    51 1
    39    13    27 1
    40    13    52 1
    41    13    53 1
    42    14    27 1
    43    14    54 1
    44    14    55 1
    45    15    28 1
    46    15    56 1
    47    15    57 1
    48    16    28 1
    49    16    58 1
    50    16    59 1
    51    17    26 1
    52    18    26 2
    53    18    29 1
    54    63    22 1
    55    63    30 2
    56    21    64 1
    57    23    33 1
    58    24    27 1
    59    25    29 1
    60    26    28 1
    61    30    31 1
    62    30    32 1
    63    31    35 1
    64    31    60 1
    65    32    33 2
    66    33    34 1
    67    34    35 2
    68    34    61 1
    69    35    62 1
@<TRIPOS>SUBSTRUCTURE
     1 FMY         1 TEMP              0 ****  ****    0 ROOT
