@<TRIPOS>MOLECULE
FMZ
   54    56     1     0     0
SMALL
bcc


@<TRIPOS>ATOM
      1 C14          1.5070     0.0000     0.0000 c3         1 FMZ      -0.091300
      2 C6           1.4550     0.6490     4.0120 c3         1 FMZ       0.131100
      3 C12          1.5110    -0.8510     3.6670 c3         1 FMZ      -0.006500
      4 C13          2.0170     0.0000     1.4420 c3         1 FMZ       0.246600
      5 N1           1.9960     1.1960    -0.6910 ns         1 FMZ      -0.142900
      6 C3           2.1250     1.1930    -2.0320 c          1 FMZ       0.587100
      7 N3           1.4070    -1.1090     2.2280 n7         1 FMZ      -0.596200
      8 C2           2.8150    -1.4160     4.1690 c          1 FMZ       0.961600
      9 O2           3.7360    -1.5830     3.4050 o          1 FMZ      -0.882800
     10 C1           2.7100     1.0740     4.7770 c3         1 FMZ      -0.002600
     11 S1           1.3940     1.4650     2.3680 ss         1 FMZ      -0.487200
     12 C15          0.0000     0.0000     0.0000 c          1 FMZ       0.672900
     13 O4          -0.6040     0.9050    -0.5230 o          1 FMZ      -0.568100
     14 O3           1.8360     0.2020    -2.6680 o          1 FMZ      -0.665100
     15 CAK          2.6270     2.4240    -2.7420 c3         1 FMZ       0.077800
     16 NAL          2.6770     2.1690    -4.1890 n7         1 FMZ      -0.377200
     17 NAI          2.4720     3.3190    -4.8960 n          1 FMZ      -0.123200
     18 CAU          3.5130     4.0830    -5.6000 c3         1 FMZ       0.054000
     19 CAV          2.7460     5.2680    -6.2180 c3         1 FMZ       0.013000
     20 NAO          1.3550     5.0460    -5.7980 ns         1 FMZ      -0.236900
     21 CAM          1.2910     3.9270    -5.0640 c          1 FMZ       0.603500
     22 OAR          0.2550     3.5060    -4.5860 o          1 FMZ      -0.727500
     23 CAS          4.0090     2.7620    -2.2450 ca         1 FMZ      -0.100300
     24 CAZ          5.1060     2.0800    -2.7340 ca         1 FMZ      -0.086500
     25 CBC          6.3740     2.3900    -2.2770 ca         1 FMZ      -0.103000
     26 CBD          6.5440     3.3840    -1.3310 ca         1 FMZ      -0.101000
     27 CBB          5.4460     4.0670    -0.8420 ca         1 FMZ      -0.103000
     28 CBA          4.1800     3.7600    -1.3020 ca         1 FMZ      -0.086500
     29 H14          1.8680    -0.8850    -0.5100 h1         1 FMZ       0.073700
     30 H12          0.6930    -1.3530     4.1680 h1         1 FMZ       0.056700
     31 H13          3.0980    -0.0490     1.4810 h2         1 FMZ       0.079700
     32 HN1          2.1920     2.0290    -0.1710 hn         1 FMZ       0.194500
     33 HN3          1.8720    -1.9680     2.0090 hn         1 FMZ       0.287800
     34 H16          0.2970     0.5580     5.8200 hc         1 FMZ       0.019700
     35 H16A         0.0720     2.0430     4.8850 hc         1 FMZ       0.019700
     36 H16B        -0.6670     0.5320     4.3370 hc         1 FMZ       0.019700
     37 H1           3.5900     0.8000     4.2080 hc         1 FMZ       0.019700
     38 H1A          2.7320     0.5760     5.7390 hc         1 FMZ       0.019700
     39 H1B          2.6950     2.1470     4.9260 hc         1 FMZ       0.019700
     40 H15         -0.5410    -0.8370     0.4250 h4         1 FMZ      -0.020800
     41 HAK          1.9590     3.2530    -2.5450 h1         1 FMZ       0.055700
     42 HNAL         1.9760     1.4980    -4.4340 hn         1 FMZ       0.312800
     43 HAU          4.1700     4.4930    -4.8420 h1         1 FMZ       0.034700
     44 HAUA         3.8570     3.4660    -6.4210 h1         1 FMZ       0.034700
     45 HAV          2.7750     5.1360    -7.2930 h1         1 FMZ       0.027200
     46 HAVA         3.0890     6.1640    -5.7150 h1         1 FMZ       0.027200
     47 HNAO         0.5790     5.6340    -6.0280 hn         1 FMZ       0.209500
     48 HAZ          4.9730     1.3010    -3.4760 ha         1 FMZ       0.116000
     49 HBC          7.2340     1.8550    -2.6610 ha         1 FMZ       0.101000
     50 HBD          7.5370     3.6260    -0.9720 ha         1 FMZ       0.098000
     51 HBB          5.5790     4.8470    -0.1030 ha         1 FMZ       0.101000
     52 HBA          3.3190     4.2950    -0.9190 ha         1 FMZ       0.116000
     53 O1           2.9540    -1.7350     5.4660 o          1 FMZ      -0.882800
     54 C16          0.1980     0.9690     4.8230 c3         1 FMZ      -0.002600
@<TRIPOS>BOND
     1     1     4 1   
     2     1     5 1   
     3     1    12 1   
     4     1    29 1   
     5     2     3 1   
     6     2    10 1   
     7     2    11 1   
     8     2    54 1   
     9     3     7 1   
    10     3     8 1   
    11     3    30 1   
    12     4     7 1   
    13     4    11 1   
    14     4    31 1   
    15     5     6 1   
    16     5    32 1   
    17     6    14 2   
    18     6    15 1   
    19     7    33 1   
    20     8     9 1   
    21     8    53 1   
    22    10    37 1   
    23    10    38 1   
    24    10    39 1   
    25    12    13 2   
    26    12    40 1   
    27    15    16 1   
    28    15    23 1   
    29    15    41 1   
    30    16    17 1   
    31    16    42 1   
    32    17    18 1   
    33    17    21 1   
    34    18    19 1   
    35    18    43 1   
    36    18    44 1   
    37    19    20 1   
    38    19    45 1   
    39    19    46 1   
    40    20    21 1   
    41    20    47 1   
    42    21    22 2   
    43    23    24 ar  
    44    23    28 ar  
    45    24    25 ar  
    46    24    48 1   
    47    25    26 ar  
    48    25    49 1   
    49    26    27 ar  
    50    26    50 1   
    51    27    28 ar  
    52    27    51 1   
    53    28    52 1   
    54    34    54 1   
    55    35    54 1   
    56    36    54 1   
@<TRIPOS>SUBSTRUCTURE
     1 FMZ         1 TEMP              0 ****  ****    0 ROOT
