@<TRIPOS>MOLECULE
molecule
   54    56     1     0     0
SMALL
bcc


@<TRIPOS>ATOM
      1 C14          1.5070     0.0000     0.0000 c3         1 FMZ       0.016700
      2 C6           1.4550     0.6490     4.0120 c3         1 FMZ       0.107100
      3 C12          1.5110    -0.8510     3.6670 c3         1 FMZ       0.044500
      4 C13          2.0170     0.0000     1.4420 c3         1 FMZ       0.282600
      5 N1           1.9960     1.1960    -0.6910 ns         1 FMZ      -0.547900
      6 C3           2.1250     1.1930    -2.0320 c          1 FMZ       0.676100
      7 N3           1.4070    -1.1090     2.2280 n7         1 FMZ      -0.816200
      8 C2           2.8150    -1.4160     4.1690 c          1 FMZ       0.868600
      9 O2           3.7360    -1.5830     3.4050 o          1 FMZ      -0.840300
     10 C1           2.7100     1.0740     4.7770 c3         1 FMZ      -0.077600
     11 S1           1.3940     1.4650     2.3680 ss         1 FMZ      -0.452200
     12 C15          0.0000     0.0000     0.0000 c          1 FMZ       0.587900
     13 O4          -0.6040     0.9050    -0.5230 o          1 FMZ      -0.535100
     14 O3           1.8360     0.2020    -2.6680 o          1 FMZ      -0.624100
     15 CAK          2.6270     2.4240    -2.7420 c3         1 FMZ       0.106800
     16 NAL          2.6770     2.1690    -4.1890 n7         1 FMZ      -0.492200
     17 NAI          2.4720     3.3190    -4.8960 n          1 FMZ      -0.391200
     18 CAU          3.5130     4.0830    -5.6000 c3         1 FMZ       0.105000
     19 CAV          2.7460     5.2680    -6.2180 c3         1 FMZ       0.063000
     20 NAO          1.3550     5.0460    -5.7980 ns         1 FMZ      -0.613900
     21 CAM          1.2910     3.9270    -5.0640 c          1 FMZ       0.784500
     22 OAR          0.2550     3.5060    -4.5860 o          1 FMZ      -0.679500
     23 CAS          4.0090     2.7620    -2.2450 ca         1 FMZ      -0.083300
     24 CAZ          5.1060     2.0800    -2.7340 ca         1 FMZ      -0.110000
     25 CBC          6.3740     2.3900    -2.2770 ca         1 FMZ      -0.132000
     26 CBD          6.5440     3.3840    -1.3310 ca         1 FMZ      -0.127000
     27 CBB          5.4460     4.0670    -0.8420 ca         1 FMZ      -0.132000
     28 CBA          4.1800     3.7600    -1.3020 ca         1 FMZ      -0.110000
     29 H14          1.8680    -0.8850    -0.5100 h1         1 FMZ       0.099700
     30 H12          0.6930    -1.3530     4.1680 h1         1 FMZ       0.080700
     31 H13          3.0980    -0.0490     1.4810 h2         1 FMZ       0.094700
     32 HN1          2.1920     2.0290    -0.1710 hn         1 FMZ       0.333500
     33 HN3          1.8720    -1.9680     2.0090 hn         1 FMZ       0.376800
     34 H16          0.2970     0.5580     5.8200 hc         1 FMZ       0.045533
     35 H16A         0.0720     2.0430     4.8850 hc         1 FMZ       0.045533
     36 H16B        -0.6670     0.5320     4.3370 hc         1 FMZ       0.045533
     37 H1           3.5900     0.8000     4.2080 hc         1 FMZ       0.045533
     38 H1A          2.7320     0.5760     5.7390 hc         1 FMZ       0.045533
     39 H1B          2.6950     2.1470     4.9260 hc         1 FMZ       0.045533
     40 H15         -0.5410    -0.8370     0.4250 h4         1 FMZ       0.017200
     41 HAK          1.9590     3.2530    -2.5450 h1         1 FMZ       0.083700
     42 HNAL         1.9760     1.4980    -4.4340 hn         1 FMZ       0.409800
     43 HAU          4.1700     4.4930    -4.8420 h1         1 FMZ       0.067200
     44 HAUA         3.8570     3.4660    -6.4210 h1         1 FMZ       0.067200
     45 HAV          2.7750     5.1360    -7.2930 h1         1 FMZ       0.058200
     46 HAVA         3.0890     6.1640    -5.7150 h1         1 FMZ       0.058200
     47 HNAO         0.5790     5.6340    -6.0280 hn         1 FMZ       0.355500
     48 HAZ          4.9730     1.3010    -3.4760 ha         1 FMZ       0.140500
     49 HBC          7.2340     1.8550    -2.6610 ha         1 FMZ       0.127500
     50 HBD          7.5370     3.6260    -0.9720 ha         1 FMZ       0.124000
     51 HBB          5.5790     4.8470    -0.1030 ha         1 FMZ       0.127500
     52 HBA          3.3190     4.2950    -0.9190 ha         1 FMZ       0.140500
     53 O1           2.9540    -1.7350     5.4660 o          1 FMZ      -0.840300
     54 C16          0.1980     0.9690     4.8230 c3         1 FMZ      -0.077600
@<TRIPOS>BOND
     1    12     1 1
     2     5     1 1
     3     1     4 1
     4     1    29 1
     5     3     2 1
     6    11     2 1
     7    54     2 1
     8     2    10 1
     9     7     3 1
    10     3     8 1
    11     3    30 1
    12     7     4 1
    13     4    11 1
    14     4    31 1
    15     5     6 1
    16     5    32 1
    17    15     6 1
    18     6    14 2
    19     7    33 1
    20     8    53 1
    21     9     8 1
    22    54    34 1
    23    54    35 1
    24    54    36 1
    25    10    37 1
    26    10    38 1
    27    10    39 1
    28    13    12 2
    29    12    40 1
    30    16    15 1
    31    15    23 1
    32    15    41 1
    33    17    16 1
    34    16    42 1
    35    18    17 1
    36    21    17 1
    37    19    18 1
    38    18    43 1
    39    18    44 1
    40    19    20 1
    41    19    45 1
    42    19    46 1
    43    20    21 1
    44    20    47 1
    45    21    22 2
    46    24    23 ar
    47    23    28 ar
    48    24    25 ar
    49    24    48 1
    50    25    26 ar
    51    25    49 1
    52    26    27 ar
    53    26    50 1
    54    28    27 ar
    55    27    51 1
    56    28    52 1
@<TRIPOS>SUBSTRUCTURE
     1 FMZ         1 TEMP              0 ****  ****    0 ROOT
