@<TRIPOS>MOLECULE
molecule
   26    27     1     0     0
SMALL
bcc


@<TRIPOS>ATOM
      1 F13          0.0000     0.0000     0.0000 f          1 FN1      -0.136900
      2 C4           1.3510     0.0000     0.0000 ca         1 FN1       0.004600
      3 C3           2.0550     0.0000     1.1970 ca         1 FN1      -0.137000
      4 C2           3.4400     0.0000     1.1480 ca         1 FN1      -0.168600
      5 C1           4.0700    -0.0000    -0.0820 ca         1 FN1       0.429200
      6 N1           3.3710     0.0000    -1.2000 nb         1 FN1      -0.668000
      7 C5           2.0530    -0.0050    -1.1940 ca         1 FN1       0.383200
      8 C6           4.2480     0.0000     2.4190 c3         1 FN1       0.206800
      9 C7           4.7430     1.4290     2.7270 c3         1 FN1      -0.093400
     10 C8           6.1720     1.1930     3.2800 c3         1 FN1      -0.116400
     11 C9           6.6450    -0.0070     2.4230 c3         1 FN1       0.151800
     12 N2           5.4420    -0.8490     2.2550 n3         1 FN1      -0.718600
     13 C10          5.4360    -1.9580     3.2190 c3         1 FN1       0.149100
     14 H3           1.5340     0.0000     2.1470 ha         1 FN1       0.149000
     15 H1           5.1530     0.0020    -0.1280 h4         1 FN1       0.041100
     16 H5           1.5120    -0.0050    -2.1330 h4         1 FN1       0.034100
     17 H6           3.6480    -0.3650     3.2440 h1         1 FN1       0.054700
     18 H72          4.7780     2.0230     1.8220 hc         1 FN1       0.056700
     19 H71          4.1160     1.8960     3.4770 hc         1 FN1       0.056700
     20 H81          6.1400     0.9280     4.3300 hc         1 FN1       0.052700
     21 H82          6.8000     2.0590     3.1090 hc         1 FN1       0.052700
     22 H91          7.0000     0.3360     1.4590 h1         1 FN1       0.055700
     23 H92          7.4190    -0.5580     2.9430 h1         1 FN1       0.055700
     24 H103         6.3030    -2.5860     3.0520 h1         1 FN1       0.034700
     25 H102         5.4660    -1.5610     4.2270 h1         1 FN1       0.034700
     26 H101         4.5350    -2.5450     3.0890 h1         1 FN1       0.034700
@<TRIPOS>BOND
     1     1     2 1
     2     2     7 ar
     3     2     3 ar
     4     7     6 ar
     5     3     4 ar
     6     6     5 ar
     7     4     5 ar
     8     4     8 1
     9     8     9 1
    10     8    12 1
    11     9    10 1
    12    12    13 1
    13    12    11 1
    14    10    11 1
    15     3    14 1
    16     5    15 1
    17     7    16 1
    18     8    17 1
    19     9    18 1
    20     9    19 1
    21    10    20 1
    22    10    21 1
    23    11    22 1
    24    11    23 1
    25    13    24 1
    26    13    25 1
    27    13    26 1
@<TRIPOS>SUBSTRUCTURE
     1 FN1         1 TEMP              0 ****  ****    0 ROOT
