@<TRIPOS>MOLECULE
FN8
   58    57     1     0     0
SMALL
bcc


@<TRIPOS>ATOM
      1 N3           0.0000     0.0000     0.0000 n          1 FN8      -0.025300
      2 C4           8.0420     2.3080     1.5730 c3         1 FN8      -0.018200
      3 C5           7.5410     1.0520     2.2890 c3         1 FN8       0.218400
      4 C6           5.5400    -0.1260     2.8860 c3         1 FN8       0.384900
      5 C7           4.0160    -0.0000     2.8840 c3         1 FN8       0.002700
      6 C8           3.5050    -0.0000     1.4420 c3         1 FN8      -0.035400
      7 C10          1.4640     0.0000     0.0000 c3         1 FN8       0.050000
      8 C13          2.9270     2.5380     5.5320 c3         1 FN8      -0.068100
      9 C84          9.6440    -0.7860    -2.0950 c3         1 FN8       0.080300
     10 N82         10.3130     0.1020    -1.1420 n          1 FN8      -0.020300
     11 O83         11.7230     0.2270    -1.1600 oh         1 FN8      -0.455100
     12 C80          9.5870     0.8000    -0.2470 c          1 FN8       0.604300
     13 O81          8.3760     0.6930    -0.2310 o          1 FN8      -0.642100
     14 C2          10.2590     1.6920     0.7110 ce         1 FN8      -0.258200
     15 C3           9.5470     2.3480     1.6220 c2         1 FN8      -0.031400
     16 C11         10.2450     3.1310     2.7050 c3         1 FN8       0.044100
     17 O7           6.1130     1.0150     2.2420 os         1 FN8      -0.412600
     18 O8           5.9210    -1.3100     2.1830 oh         1 FN8      -0.600800
     19 N2           3.6280     1.2520     3.5390 ns         1 FN8      -0.181900
     20 C12          3.4440     1.2840     4.8740 c          1 FN8       0.572100
     21 O9           3.6950     0.3060     5.5450 o          1 FN8      -0.666100
     22 C9           1.9750     0.0000     1.4420 c3         1 FN8      -0.058400
     23 O3          -0.7080    -1.1840    -0.3180 oh         1 FN8      -0.454100
     24 C14         -0.6740     1.1260     0.3080 c          1 FN8       0.592100
     25 O71         -0.0680     2.1400     0.5840 o          1 FN8      -0.645100
     26 C72         -2.1820     1.1260     0.3090 c3         1 FN8      -0.091400
     27 C91         -2.6910     2.5180     0.6890 c3         1 FN8       0.018900
     28 H1           7.6410     3.1870     2.0640 hc         1 FN8       0.047200
     29 H2           7.7140     2.2900     0.5410 hc         1 FN8       0.047200
     30 H3           7.8680     1.0700     3.3210 h1         1 FN8       0.003700
     31 H4           7.9410     0.1730     1.7980 h1         1 FN8       0.003700
     32 H5           5.8970    -0.1820     3.9070 h2         1 FN8       0.000700
     33 H6           3.5830    -0.8370     3.4200 h1         1 FN8       0.061700
     34 H7           3.8650    -0.8850     0.9310 hc         1 FN8       0.039200
     35 H8           3.8660     0.8840     0.9310 hc         1 FN8       0.039200
     36 H9           1.8250     0.8840    -0.5110 h1         1 FN8       0.030200
     37 H10          1.8250    -0.8850    -0.5110 h1         1 FN8       0.030200
     38 H11          2.7670     2.3530     6.5880 hc         1 FN8       0.023367
     39 H12          1.9910     2.8290     5.0710 hc         1 FN8       0.023367
     40 H13          3.6520     3.3340     5.4120 hc         1 FN8       0.023367
     41 H14         10.3830    -1.2460    -2.7400 h1         1 FN8       0.015700
     42 H15          8.9470    -0.2140    -2.6940 h1         1 FN8       0.015700
     43 H16          9.1080    -1.5570    -1.5540 h1         1 FN8       0.015700
     44 H17         12.0050     0.4770    -2.0240 ho         1 FN8       0.396000
     45 H18         11.3420     1.7230     0.7480 ha         1 FN8       0.124000
     46 H19         10.8460     2.4580     3.3060 hc         1 FN8       0.012367
     47 H20         10.8840     3.8800     2.2540 hc         1 FN8       0.012367
     48 H21          9.5080     3.6150     3.3330 hc         1 FN8       0.012367
     49 H22          6.1090    -1.9960     2.8020 ho         1 FN8       0.394000
     50 H23          3.5360     2.0910     3.0010 hn         1 FN8       0.188500
     51 H24          1.6140    -0.8840     1.9530 hc         1 FN8       0.030700
     52 H25          1.6140     0.8850     1.9530 hc         1 FN8       0.030700
     53 H26         -0.5370    -1.4220    -1.2140 ho         1 FN8       0.395000
     54 H27         -2.5430     0.4010     1.0270 hc         1 FN8       0.030200
     55 H28         -2.5430     0.8660    -0.6790 hc         1 FN8       0.030200
     56 H29         -3.7740     2.5170     0.6940 hc         1 FN8       0.007700
     57 H30         -2.3340     3.2430    -0.0330 hc         1 FN8       0.007700
     58 H31         -2.3260     2.7800     1.6740 hc         1 FN8       0.007700
@<TRIPOS>BOND
     1     1     7 1   
     2     1    23 1   
     3     1    24 1   
     4     2     3 1   
     5     2    15 1   
     6     2    28 1   
     7     2    29 1   
     8     3    17 1   
     9     3    30 1   
    10     3    31 1   
    11     4     5 1   
    12     4    17 1   
    13     4    18 1   
    14     4    32 1   
    15     5     6 1   
    16     5    19 1   
    17     5    33 1   
    18     6    22 1   
    19     6    34 1   
    20     6    35 1   
    21     7    22 1   
    22     7    36 1   
    23     7    37 1   
    24     8    20 1   
    25     8    38 1   
    26     8    39 1   
    27     8    40 1   
    28     9    10 1   
    29     9    41 1   
    30     9    42 1   
    31     9    43 1   
    32    10    11 1   
    33    10    12 1   
    34    11    44 1   
    35    12    13 2   
    36    12    14 1   
    37    14    15 2   
    38    14    45 1   
    39    15    16 1   
    40    16    46 1   
    41    16    47 1   
    42    16    48 1   
    43    18    49 1   
    44    19    20 1   
    45    19    50 1   
    46    20    21 2   
    47    22    51 1   
    48    22    52 1   
    49    23    53 1   
    50    24    25 2   
    51    24    26 1   
    52    26    27 1   
    53    26    54 1   
    54    26    55 1   
    55    27    56 1   
    56    27    57 1   
    57    27    58 1   
@<TRIPOS>SUBSTRUCTURE
     1 FN8         1 TEMP              0 ****  ****    0 ROOT
