@<TRIPOS>MOLECULE
molecule
   58    57     1     0     0
SMALL
bcc


@<TRIPOS>ATOM
      1 N3           0.0000     0.0000     0.0000 n          1 FN8      -0.372300
      2 C4           8.0420     2.3080     1.5730 c3         1 FN8      -0.124200
      3 C5           7.5410     1.0520     2.2890 c3         1 FN8       0.157400
      4 C6           5.5400    -0.1260     2.8860 c3         1 FN8       0.327900
      5 C7           4.0160    -0.0000     2.8840 c3         1 FN8       0.119700
      6 C8           3.5050    -0.0000     1.4420 c3         1 FN8      -0.087400
      7 C10          1.4640     0.0000     0.0000 c3         1 FN8       0.114000
      8 C13          2.9270     2.5380     5.5320 c3         1 FN8      -0.169100
      9 C84          9.6440    -0.7860    -2.0950 c3         1 FN8       0.096300
     10 N82         10.3130     0.1020    -1.1420 n          1 FN8      -0.360300
     11 O83         11.7230     0.2270    -1.1600 oh         1 FN8      -0.354100
     12 C80          9.5870     0.8000    -0.2470 c          1 FN8       0.644300
     13 O81          8.3760     0.6930    -0.2310 o          1 FN8      -0.644100
     14 C2          10.2590     1.6920     0.7110 ce         1 FN8      -0.484200
     15 C3           9.5470     2.3480     1.6220 c2         1 FN8       0.131600
     16 C11         10.2450     3.1310     2.7050 c3         1 FN8      -0.076900
     17 O7           6.1130     1.0150     2.2420 os         1 FN8      -0.422600
     18 O8           5.9210    -1.3100     2.1830 oh         1 FN8      -0.621800
     19 N2           3.6280     1.2520     3.5390 ns         1 FN8      -0.574900
     20 C12          3.4440     1.2840     4.8740 c          1 FN8       0.658100
     21 O9           3.6950     0.3060     5.5450 o          1 FN8      -0.625100
     22 C9           1.9750     0.0000     1.4420 c3         1 FN8      -0.106400
     23 O3          -0.7080    -1.1840    -0.3180 oh         1 FN8      -0.385100
     24 C14         -0.6740     1.1260     0.3080 c          1 FN8       0.678100
     25 O71         -0.0680     2.1400     0.5840 o          1 FN8      -0.602100
     26 C72         -2.1820     1.1260     0.3090 c3         1 FN8      -0.151400
     27 C91         -2.6910     2.5180     0.6890 c3         1 FN8      -0.080100
     28 H1           7.6410     3.1870     2.0640 hc         1 FN8       0.079200
     29 H2           7.7140     2.2900     0.5410 hc         1 FN8       0.079200
     30 H3           7.9410     0.1730     1.7980 h1         1 FN8       0.040200
     31 H4           7.8680     1.0700     3.3210 h1         1 FN8       0.040200
     32 H5           5.8970    -0.1820     3.9070 h2         1 FN8       0.038700
     33 H6           3.5830    -0.8370     3.4200 h1         1 FN8       0.088700
     34 H7           3.8650    -0.8850     0.9310 hc         1 FN8       0.066700
     35 H8           3.8660     0.8840     0.9310 hc         1 FN8       0.066700
     36 H9           1.8250     0.8840    -0.5110 h1         1 FN8       0.060200
     37 H10          1.8250    -0.8840    -0.5110 h1         1 FN8       0.060200
     38 H11          1.8460     2.5630     5.4650 hc         1 FN8       0.061033
     39 H12          3.2240     2.5480     6.5740 hc         1 FN8       0.061033
     40 H13          3.3400     3.4060     5.0310 hc         1 FN8       0.061033
     41 H14          9.1420    -1.5810    -1.5560 h1         1 FN8       0.050033
     42 H15          8.9170    -0.2220    -2.6660 h1         1 FN8       0.050033
     43 H16         10.3780    -1.2130    -2.7670 h1         1 FN8       0.050033
     44 H17         12.0210     0.2990    -2.0520 ho         1 FN8       0.391000
     45 H18          9.8150     2.0800    -0.1980 ha         1 FN8       0.261000
     46 H19         11.3150     2.9760     2.6290 hc         1 FN8       0.066033
     47 H20         10.0240     4.1850     2.5890 hc         1 FN8       0.066033
     48 H21          9.9000     2.7940     3.6750 hc         1 FN8       0.066033
     49 H22          6.1570    -1.9810     2.8020 ho         1 FN8       0.411000
     50 H23          3.5480     2.0930     3.0030 hn         1 FN8       0.327500
     51 H24          1.6140    -0.8840     1.9530 hc         1 FN8       0.059200
     52 H25          1.6150     0.8850     1.9530 hc         1 FN8       0.059200
     53 H26         -0.6450    -1.3490    -1.2440 ho         1 FN8       0.397000
     54 H27         -2.5430     0.8660    -0.6790 hc         1 FN8       0.065200
     55 H28         -2.5430     0.4010     1.0270 hc         1 FN8       0.065200
     56 H29         -2.3040     3.2480    -0.0120 hc         1 FN8       0.042700
     57 H30         -3.7740     2.5270     0.6580 hc         1 FN8       0.042700
     58 H31         -2.3560     2.7650     1.6890 hc         1 FN8       0.042700
@<TRIPOS>BOND
     1     9    10 1
     2    16    15 1
     3    14    15 2
     4    14    12 1
     5    15     2 1
     6    10    12 1
     7    10    11 1
     8    12    13 2
     9     2     3 1
    10     3    17 1
    11     8    20 1
    12    17     4 1
    13    20    19 1
    14    20    21 2
    15    19     5 1
    16     4    18 1
    17     4     5 1
    18    25    24 2
    19    23     1 1
    20     5     6 1
    21     6    22 1
    22    24     1 1
    23    24    26 1
    24     1     7 1
    25    22     7 1
    26    27    26 1
    27     2    28 1
    28     2    29 1
    29     3    30 1
    30     3    31 1
    31     4    32 1
    32     5    33 1
    33     6    34 1
    34     6    35 1
    35     7    36 1
    36     7    37 1
    37     8    38 1
    38     8    39 1
    39     8    40 1
    40     9    41 1
    41     9    42 1
    42     9    43 1
    43    11    44 1
    44    14    45 1
    45    16    46 1
    46    16    47 1
    47    16    48 1
    48    18    49 1
    49    19    50 1
    50    22    51 1
    51    22    52 1
    52    23    53 1
    53    26    54 1
    54    26    55 1
    55    27    56 1
    56    27    57 1
    57    27    58 1
@<TRIPOS>SUBSTRUCTURE
     1 FN8         1 TEMP              0 ****  ****    0 ROOT
