@<TRIPOS>MOLECULE
FNA
   30    32     1     0     0
SMALL
bcc


@<TRIPOS>ATOM
      1 C1           0.0000     0.0000     0.0000 ca         1 FNA      -0.074500
      2 N1           3.4700    -0.0000     1.2090 nu         1 FNA      -0.223000
      3 C2           1.3800     0.0000     0.0000 ca         1 FNA      -0.141500
      4 C3          -0.6930    -0.0010     1.1970 ca         1 FNA      -0.124000
      5 C4           2.0740     0.0000     1.2050 ca         1 FNA       0.010600
      6 C5          -0.0070    -0.0060     2.3970 ca         1 FNA      -0.074500
      7 C6           1.3740     0.0010     2.4050 ca         1 FNA      -0.141500
      8 C7           5.5730     0.6980     0.2010 ca         1 FNA      -0.072000
      9 C8           6.2630     1.5350    -0.7080 ca         1 FNA       0.004000
     10 C9           4.1700     0.8100     0.3160 ca         1 FNA       0.049600
     11 C10          5.5410     2.4590    -1.4840 ca         1 FNA      -0.147000
     12 C11          3.4980     1.7290    -0.4630 ca         1 FNA      -0.214000
     13 C12          4.1880     2.5430    -1.3560 ca         1 FNA      -0.047000
     14 C13          8.3290     0.5220    -0.0530 ca         1 FNA      -0.094000
     15 C14          7.6600     1.4270    -0.8190 ca         1 FNA      -0.093000
     16 C15          6.2950    -0.2230     0.9760 ca         1 FNA      -0.093000
     17 C16          7.6480    -0.3000     0.8430 ca         1 FNA      -0.107000
     18 H1          -0.5410     0.0020    -0.9390 ha         1 FNA       0.102500
     19 HN1          3.9690    -0.5750     1.8590 hn         1 FNA       0.291800
     20 H2           1.9230     0.0010    -0.9380 ha         1 FNA       0.118000
     21 H3          -1.7770    -0.0030     1.1940 ha         1 FNA       0.104000
     22 H5          -0.5530    -0.0060     3.3330 ha         1 FNA       0.102500
     23 H6           1.9100    -0.0030     3.3460 ha         1 FNA       0.118000
     24 H110         6.0600     3.1010    -2.1850 ha         1 FNA       0.107000
     25 H11          2.4210     1.8160    -0.3810 ha         1 FNA       0.136000
     26 H112         3.6400     3.2570    -1.9580 ha         1 FNA       0.097000
     27 H13          9.4060     0.4410    -0.1390 ha         1 FNA       0.100000
     28 H14          8.2020     2.0610    -1.5110 ha         1 FNA       0.107000
     29 H15          5.7790    -0.8690     1.6760 ha         1 FNA       0.100000
     30 H16          8.2030    -1.0130     1.4410 ha         1 FNA       0.100000
@<TRIPOS>BOND
     1     1     3 ar  
     2     1     4 ar  
     3     1    18 1   
     4     2     5 1   
     5     2    10 1   
     6     2    19 1   
     7     3     5 ar  
     8     3    20 1   
     9     4     6 ar  
    10     4    21 1   
    11     5     7 ar  
    12     6     7 ar  
    13     6    22 1   
    14     7    23 1   
    15     8     9 ar  
    16     8    10 ar  
    17     8    16 ar  
    18     9    11 ar  
    19     9    15 ar  
    20    10    12 ar  
    21    11    13 ar  
    22    11    24 1   
    23    12    13 ar  
    24    12    25 1   
    25    13    26 1   
    26    14    15 ar  
    27    14    17 ar  
    28    14    27 1   
    29    15    28 1   
    30    16    17 ar  
    31    16    29 1   
    32    17    30 1   
@<TRIPOS>SUBSTRUCTURE
     1 FNA         1 TEMP              0 ****  ****    0 ROOT
