@<TRIPOS>MOLECULE
FND
   89    94     1     0     0
SMALL
bcc


@<TRIPOS>ATOM
      1 C11          0.0000     0.0000     0.0000 ca         1 FND      -0.127600
      2 C12          1.3980     0.0000     0.0000 ca         1 FND      -0.133000
      3 C13          2.0870     0.0000     1.1960 ca         1 FND       0.108100
      4 C14          1.3850     0.0000     2.4040 ca         1 FND      -0.017400
      5 C15         -0.0050    -0.0000     2.4030 ca         1 FND      -0.098000
      6 C16         -0.6950     0.0050     1.2110 ca         1 FND      -0.110000
      7 C27         -0.1750     1.9470     9.2430 c          1 FND       0.628100
      8 N1          -0.1100     2.4080     8.0020 n          1 FND       0.056000
      9 C28         -0.6780     3.7380     7.7640 c3         1 FND       0.043300
     10 C19          0.4420     1.7560     6.8990 ca         1 FND      -0.399000
     11 C18         -0.1810     1.8390     5.6620 ca         1 FND       0.472200
     12 N4           0.3780     1.2470     4.6160 nb         1 FND      -0.680000
     13 C26          0.3520     0.6610     9.7100 ca         1 FND      -0.160600
     14 C25         -0.3640    -0.0810    10.6560 ca         1 FND      -0.025000
     15 C24          0.1410    -1.2740    11.1240 ca         1 FND      -0.123000
     16 C23          1.3610    -1.7460    10.6680 ca         1 FND      -0.066000
     17 C22          2.0740    -1.0320     9.7240 ca         1 FND      -0.128000
     18 C21          1.5710     0.1630     9.2290 ca         1 FND       0.061600
     19 N2           2.2500     0.8360     8.2180 na         1 FND      -0.371700
     20 C29          3.6070     1.3390     8.4390 c3         1 FND       0.161500
     21 C20          1.6230     1.0200     6.9980 ca         1 FND       0.587200
     22 N3           2.1370     0.4710     5.9030 nb         1 FND      -0.686000
     23 C17          1.5180     0.5860     4.7370 ca         1 FND       0.701900
     24 N5           2.0810    -0.0010     3.6120 nu         1 FND      -0.263300
     25 C2          -2.2050    -1.7420    -0.3800 c3         1 FND       0.037000
     26 C1          -2.3290    -3.1390    -0.9980 c3         1 FND      -0.052900
     27 C3          -2.6280    -0.7230    -2.6540 c3         1 FND       0.037000
     28 C4          -2.7480    -2.1310    -3.2470 c3         1 FND      -0.052900
     29 C           -3.2960    -3.0830    -2.1830 c3         1 FND       0.131500
     30 C32          3.6260     2.8570     8.2500 c3         1 FND      -0.050400
     31 O2           3.4460    -0.0010     1.1990 os         1 FND      -0.317900
     32 C5           4.0980    -0.0010    -0.0720 c3         1 FND       0.246700
     33 C6          -0.7390     0.0010    -1.2770 c          1 FND       0.614700
     34 O3          -0.3740     0.7160    -2.1900 o          1 FND      -0.649100
     35 N6          -1.8180    -0.7920    -1.4310 n          1 FND      -0.145800
     36 N7          -3.4430    -4.4270    -2.7580 n3         1 FND      -0.538600
     37 C30         -4.2970    -4.3980    -3.9540 c3         1 FND       0.141800
     38 C33         -4.3600    -5.7990    -4.5660 c3         1 FND       0.155800
     39 N8          -4.8860    -6.7430    -3.5710 n3         1 FND      -0.549600
     40 C35         -4.0320    -6.7720    -2.3740 c3         1 FND       0.155800
     41 C36         -3.9690    -5.3710    -1.7620 c3         1 FND       0.141800
     42 C37         -5.0330    -8.0860    -4.1460 c3         1 FND       0.189100
     43 C7           4.5620     0.6880     7.4360 c3         1 FND      -0.026100
     44 H1           1.9410    -0.0020    -0.9380 ha         1 FND       0.137000
     45 H2          -0.5460     0.0020     3.3410 ha         1 FND       0.146000
     46 H3          -1.7790     0.0050     1.2130 ha         1 FND       0.116000
     47 H4          -0.1920     4.1900     6.9070 h1         1 FND       0.023700
     48 H5          -1.7400     3.6480     7.5700 h1         1 FND       0.023700
     49 H6          -0.5210     4.3590     8.6370 h1         1 FND       0.023700
     50 H7          -1.1140     2.3780     5.5530 h4         1 FND      -0.005900
     51 H8          -1.3190     0.2800    11.0180 ha         1 FND       0.120000
     52 H9          -0.4120    -1.8400    11.8630 ha         1 FND       0.108000
     53 H10          1.7510    -2.6850    11.0410 ha         1 FND       0.103000
     54 H11          3.0280    -1.4050     9.3710 ha         1 FND       0.117000
     55 H12          3.9230     1.0970     9.4470 h1         1 FND       0.042700
     56 H13          2.9730    -0.4490     3.6760 hn         1 FND       0.301800
     57 H14         -3.1580    -1.4480     0.0420 h1         1 FND       0.035700
     58 H15         -1.4470    -1.7550     0.3940 h1         1 FND       0.035700
     59 H16         -2.7080    -3.8290    -0.2550 hc         1 FND       0.033450
     60 H17         -1.3560    -3.4680    -1.3420 hc         1 FND       0.033450
     61 H18         -3.6150    -0.3450    -2.4150 h1         1 FND       0.035700
     62 H19         -2.1470    -0.0680    -3.3710 h1         1 FND       0.035700
     63 H20         -1.7710    -2.4720    -3.5670 hc         1 FND       0.033450
     64 H21         -3.4240    -2.1090    -4.0940 hc         1 FND       0.033450
     65 H22         -4.2600    -2.7240    -1.8430 h1         1 FND       0.012700
     66 H23          2.3940     2.7580    10.0090 hc         1 FND       0.010367
     67 H24          3.3690     4.2290     9.8840 hc         1 FND       0.010367
     68 H25          1.9340     4.0290     8.8680 hc         1 FND       0.010367
     69 H26          3.2290     3.1040     7.2730 hc         1 FND       0.023200
     70 H27          4.6450     3.2170     8.3270 hc         1 FND       0.023200
     71 H28          3.8110     0.8850    -0.6250 h1         1 FND       0.001033
     72 H29          5.1720    -0.0040     0.0730 h1         1 FND       0.001033
     73 H30          3.8060    -0.8840    -0.6280 h1         1 FND       0.001033
     74 H32         -5.2950    -4.0810    -3.6760 h1         1 FND       0.018950
     75 H33         -3.8810    -3.7070    -4.6770 h1         1 FND       0.018950
     76 H34         -3.3650    -6.1070    -4.8640 h1         1 FND       0.013700
     77 H35         -5.0130    -5.7850    -5.4300 h1         1 FND       0.013700
     78 H37         -4.4490    -7.4620    -1.6510 h1         1 FND       0.013700
     79 H38         -3.0340    -7.0890    -2.6520 h1         1 FND       0.013700
     80 H39         -3.3150    -5.3850    -0.8990 h1         1 FND       0.018950
     81 H40         -4.9640    -5.0630    -1.4640 h1         1 FND       0.018950
     82 H41         -5.4530    -8.7530    -3.4020 h1         1 FND       0.000033
     83 H42         -5.6920    -8.0410    -5.0040 h1         1 FND       0.000033
     84 H43         -4.0620    -8.4540    -4.4540 h1         1 FND       0.000033
     85 H44          4.5930     1.2810     6.5300 hc         1 FND       0.015700
     86 H45          4.2140    -0.3110     7.2020 hc         1 FND       0.015700
     87 H46          5.5550     0.6330     7.8660 hc         1 FND       0.015700
     88 O1          -0.7160     2.6570    10.0690 o          1 FND      -0.689500
     89 C31          2.7680     3.5160     9.3320 c3         1 FND      -0.016100
@<TRIPOS>BOND
     1     1     2 ar  
     2     1     6 ar  
     3     1    33 1   
     4     2     3 ar  
     5     2    44 1   
     6     3     4 ar  
     7     3    31 1   
     8     4     5 ar  
     9     4    24 1   
    10     5     6 ar  
    11     5    45 1   
    12     6    46 1   
    13     7     8 1   
    14     7    13 1   
    15     7    88 2   
    16     8     9 1   
    17     8    10 1   
    18     9    47 1   
    19     9    48 1   
    20     9    49 1   
    21    10    11 ar  
    22    10    21 ar  
    23    11    12 ar  
    24    11    50 1   
    25    12    23 ar  
    26    13    14 ar  
    27    13    18 ar  
    28    14    15 ar  
    29    14    51 1   
    30    15    16 ar  
    31    15    52 1   
    32    16    17 ar  
    33    16    53 1   
    34    17    18 ar  
    35    17    54 1   
    36    18    19 1   
    37    19    20 1   
    38    19    21 1   
    39    20    30 1   
    40    20    43 1   
    41    20    55 1   
    42    21    22 ar  
    43    22    23 ar  
    44    23    24 1   
    45    24    56 1   
    46    25    26 1   
    47    25    35 1   
    48    25    57 1   
    49    25    58 1   
    50    26    29 1   
    51    26    59 1   
    52    26    60 1   
    53    27    28 1   
    54    27    35 1   
    55    27    61 1   
    56    27    62 1   
    57    28    29 1   
    58    28    63 1   
    59    28    64 1   
    60    29    36 1   
    61    29    65 1   
    62    30    69 1   
    63    30    70 1   
    64    30    89 1   
    65    31    32 1   
    66    32    71 1   
    67    32    72 1   
    68    32    73 1   
    69    33    34 2   
    70    33    35 1   
    71    36    37 1   
    72    36    41 1   
    73    37    38 1   
    74    37    74 1   
    75    37    75 1   
    76    38    39 1   
    77    38    76 1   
    78    38    77 1   
    79    39    40 1   
    80    39    42 1   
    81    40    41 1   
    82    40    78 1   
    83    40    79 1   
    84    41    80 1   
    85    41    81 1   
    86    42    82 1   
    87    42    83 1   
    88    42    84 1   
    89    43    85 1   
    90    43    86 1   
    91    43    87 1   
    92    66    89 1   
    93    67    89 1   
    94    68    89 1   
@<TRIPOS>SUBSTRUCTURE
     1 FND         1 TEMP              0 ****  ****    0 ROOT
