@<TRIPOS>MOLECULE
FNG
   41    42     1     0     0
SMALL
bcc


@<TRIPOS>ATOM
      1 C1           0.0000     0.0000     0.0000 c3         1 FNG       0.325900
      2 O1          -0.4750    -1.1520     0.6980 os         1 FNG      -0.263900
      3 C2           1.5300     0.0000     0.0000 c3         1 FNG       0.153100
      4 O2           2.0080    -1.1680    -0.6710 oh         1 FNG      -0.573800
      5 C3           2.0310     0.0000     1.4480 c3         1 FNG       0.160100
      6 O3           3.4520     0.1500     1.4670 oh         1 FNG      -0.565800
      7 C4           1.3790     1.1720     2.1910 c3         1 FNG       0.145100
      8 O4           1.8500     2.4060     1.6450 oh         1 FNG      -0.565800
      9 C5          -0.1390     1.0850     2.0250 c3         1 FNG       0.143100
     10 O5          -0.4810     1.1780     0.6450 os         1 FNG      -0.385600
     11 C6          -0.8000     2.2320     2.7920 c3         1 FNG       0.225400
     12 O6          -2.2200     2.0830     2.7430 oh         1 FNG      -0.610800
     13 C7          -1.7950    -1.2780     0.3970 ca         1 FNG       0.145100
     14 C12         -2.5050    -2.3850     0.8420 ca         1 FNG       0.016000
     15 C11         -3.8480    -2.5180     0.5380 ca         1 FNG      -0.391200
     16 C10         -4.4920    -1.5480    -0.2050 ca         1 FNG      -0.048000
     17 C9          -3.7830    -0.4350    -0.6600 ca         1 FNG      -0.204600
     18 C8          -2.4300    -0.3020    -0.3540 ca         1 FNG      -0.058000
     19 N16         -4.5990    -3.7010     1.0160 no         1 FNG       1.036200
     20 O17         -5.7810    -3.8200     0.7480 o          1 FNG      -0.421500
     21 O18         -4.0340    -4.5550     1.6740 o          1 FNG      -0.421500
     22 C13         -4.4680     0.6020    -1.4610 c          1 FNG       0.357700
     23 N15         -5.7770     0.4710    -1.7560 nz         1 FNG       0.199600
     24 O14         -3.8510     1.5730    -1.8520 o          1 FNG      -0.413100
     25 H11         -0.3580    -0.0200    -1.0220 h2         1 FNG       0.041700
     26 H21          1.8910     0.8870    -0.5060 h1         1 FNG       0.055700
     27 HO21         2.4650    -0.9150    -1.4560 ho         1 FNG       0.406000
     28 H31          1.7520    -0.9310     1.9260 h1         1 FNG       0.024700
     29 HO31         3.8330    -0.5320     1.9940 ho         1 FNG       0.401000
     30 H41          1.6310     1.1160     3.2430 h1         1 FNG       0.020700
     31 HO41         2.4470     2.8110     2.2520 ho         1 FNG       0.404000
     32 H51         -0.4880     0.1370     2.4170 h1         1 FNG       0.037700
     33 H61         -0.5210     3.1770     2.3400 h1         1 FNG       0.009200
     34 H62         -0.4700     2.2140     3.8240 h1         1 FNG       0.009200
     35 HO61        -2.6220     2.7120     3.3190 ho         1 FNG       0.402000
     36 H121        -2.0050    -3.1490     1.4250 ha         1 FNG       0.163000
     37 H101        -5.5430    -1.6560    -0.4410 ha         1 FNG       0.110000
     38 H81         -1.8750     0.5600    -0.7050 ha         1 FNG       0.184000
     39 H151        -5.9190    -0.3710    -2.2780 hn         1 FNG       0.249800
     40 H152        -6.3080     0.4330    -0.9090 hn         1 FNG       0.249800
     41 H153        -6.0760     1.2550    -2.3020 hn         1 FNG       0.249800
@<TRIPOS>BOND
     1     1     2 1   
     2     1     3 1   
     3     1    10 1   
     4     1    25 1   
     5     2    13 1   
     6     3     4 1   
     7     3     5 1   
     8     3    26 1   
     9     4    27 1   
    10     5     6 1   
    11     5     7 1   
    12     5    28 1   
    13     6    29 1   
    14     7     8 1   
    15     7     9 1   
    16     7    30 1   
    17     8    31 1   
    18     9    10 1   
    19     9    11 1   
    20     9    32 1   
    21    11    12 1   
    22    11    33 1   
    23    11    34 1   
    24    12    35 1   
    25    13    14 ar  
    26    13    18 ar  
    27    14    15 ar  
    28    14    36 1   
    29    15    16 ar  
    30    15    19 1   
    31    16    17 ar  
    32    16    37 1   
    33    17    18 ar  
    34    17    22 1   
    35    18    38 1   
    36    19    20 1   
    37    19    21 1   
    38    22    23 1   
    39    22    24 2   
    40    23    39 1   
    41    23    40 1   
    42    23    41 1   
@<TRIPOS>SUBSTRUCTURE
     1 FNG         1 TEMP              0 ****  ****    0 ROOT
