@<TRIPOS>MOLECULE
FNI
   45    49     1     0     0
SMALL
bcc


@<TRIPOS>ATOM
      1 C1         -0.1040   -0.8220    0.6990 ca        1 FNI      0.362200
      2 N2          1.1610   -0.3560    0.5600 nb        1 FNI     -0.631000
      3 C3          1.8610   -0.0400    1.6590 ca        1 FNI      0.403200
      4 C4          1.2820   -0.1970    2.9310 ca        1 FNI     -0.018200
      5 C5         -0.0450   -0.7010    3.0810 ca        1 FNI     -0.114800
      6 C6         -0.7600   -1.0160    1.9270 ca        1 FNI     -0.171300
      7 O7          1.8550    0.1090    4.1550 os        1 FNI     -0.180200
      8 C8          0.8720   -0.2130    5.1230 cc        1 FNI     -0.171100
      9 C9         -0.3000   -0.7040    4.5270 cd        1 FNI      0.234800
     10 C10         1.1570    0.0190    6.5400 c         1 FNI      0.734300
     11 N11        -1.4580   -1.0070    5.1890 nh        1 FNI     -0.611400
     12 C12        -2.3990   -1.9660    4.7640 ca        1 FNI      0.153600
     13 C13        -2.0350   -3.0480    3.9000 ca        1 FNI     -0.176000
     14 C14        -2.9710   -3.9720    3.5150 ca        1 FNI     -0.067000
     15 C15        -4.3140   -3.8810    3.9630 ca        1 FNI     -0.073000
     16 C16        -4.6860   -2.8220    4.8280 ca        1 FNI      0.013000
     17 C17        -3.7120   -1.8700    5.2190 ca        1 FNI     -0.161000
     18 C18        -5.3160   -4.8270    3.5800 ca        1 FNI      0.150100
     19 C19        -6.6170   -4.7190    4.0370 ca        1 FNI     -0.231000
     20 C20        -6.9650   -3.6560    4.8980 ca        1 FNI     -0.079000
     21 C21        -6.0300   -2.7290    5.2870 ca        1 FNI     -0.159000
     22 O22         0.2600   -0.1810    7.3880 o         1 FNI     -0.618100
     23 O23        -4.9010   -5.8330    2.7370 oh        1 FNI     -0.498100
     24 N24         2.4380    0.4500    6.8640 n         1 FNI     -0.532400
     25 C25         2.9240    0.7310    8.1510 ca        1 FNI      0.563200
     26 N26         4.2270    1.1810    8.2290 nb        1 FNI     -0.746000
     27 C27         4.6940    1.4470    9.4690 ca        1 FNI      0.654900
     28 N28         4.0320    1.3230   10.6520 nb        1 FNI     -0.713000
     29 C29         2.7620    0.8820   10.5560 ca        1 FNI      0.441200
     30 C30         2.1460    0.5670    9.3330 ca        1 FNI     -0.382600
     31 H1         -0.6210   -1.0530   -0.2500 h4        1 FNI      0.032100
     32 H3          2.8860    0.3420    1.5250 h4        1 FNI      0.045100
     33 H6         -1.7910   -1.3950    1.9700 ha        1 FNI      0.164000
     34 HN11       -1.4730   -0.7820    6.1680 hn        1 FNI      0.473800
     35 H13        -0.9930   -3.1380    3.5560 ha        1 FNI      0.147000
     36 H14        -2.6960   -4.8110    2.8540 ha        1 FNI      0.155000
     37 H17        -4.0220   -1.0570    5.8940 ha        1 FNI      0.146000
     38 H19        -7.3820   -5.4500    3.7390 ha        1 FNI      0.137000
     39 H20        -8.0050   -3.5840    5.2530 ha        1 FNI      0.136000
     40 H21        -6.3010   -1.9010    5.9580 ha        1 FNI      0.138000
     41 HO23       -5.6610   -6.4080    2.5610 ho        1 FNI      0.424000
     42 HN24        3.0730    0.5900    6.1030 hn        1 FNI      0.351500
     43 H27         5.7430    1.8080    9.5210 h5        1 FNI      0.055100
     44 H29         2.2070    0.7750   11.5070 h4        1 FNI      0.031100
     45 H30         1.1080    0.2110    9.3070 ha        1 FNI      0.190000
@<TRIPOS>BOND
     1    1    2 ar
     2    1    6 ar
     3    1   31 1
     4    2    3 ar
     5    3    4 ar
     6    3   32 1
     7    4    5 ar
     8    4    7 1
     9    5    6 ar
    10    5    9 1
    11    6   33 1
    12    7    8 1
    13    8    9 2
    14    8   10 1
    15    9   11 1
    16   10   22 2
    17   10   24 1
    18   11   12 1
    19   11   34 1
    20   12   13 ar
    21   12   17 ar
    22   13   14 ar
    23   13   35 1
    24   14   15 ar
    25   14   36 1
    26   15   16 ar
    27   15   18 ar
    28   16   17 ar
    29   16   21 ar
    30   17   37 1
    31   18   19 ar
    32   18   23 1
    33   19   20 ar
    34   19   38 1
    35   20   21 ar
    36   20   39 1
    37   21   40 1
    38   23   41 1
    39   24   25 1
    40   24   42 1
    41   25   26 ar
    42   25   30 ar
    43   26   27 ar
    44   27   28 ar
    45   27   43 1
    46   28   29 ar
    47   29   30 ar
    48   29   44 1
    49   30   45 1
@<TRIPOS>SUBSTRUCTURE
     1 FNI         1 TEMP              0 ****  ****    0 ROOT
