@<TRIPOS>MOLECULE
FNM
   39    41     1     0     0
SMALL
bcc


@<TRIPOS>ATOM
      1 N1           0.0000     0.0000     0.0000 nu         1 FNM      -0.280600
      2 N2           1.4000     0.0000     0.0000 n          1 FNM       0.058300
      3 C3           2.1820     0.0000     1.1300 c2         1 FNM       0.360800
      4 S3           1.5300    -0.0010     2.7670 ss         1 FNM      -0.276300
      5 N4           3.4530     0.0000     0.8630 n2         1 FNM      -0.603900
      6 C5           3.5970     0.0000    -0.6020 c3         1 FNM       0.085500
      7 C6           2.1690    -0.0050    -1.1090 c          1 FNM       0.609500
      8 O6           1.7960    -0.0110    -2.2640 o          1 FNM      -0.604500
      9 C7           4.3330     1.2590    -1.0680 c3         1 FNM       0.033900
     10 C8           4.3220    -1.2380    -1.0610 ca         1 FNM      -0.093300
     11 C9           5.2770    -1.8210    -0.2500 ca         1 FNM      -0.092500
     12 C10          5.9410    -2.9580    -0.6720 ca         1 FNM      -0.104000
     13 C11          5.6510    -3.5110    -1.9050 ca         1 FNM      -0.096000
     14 C12          4.6960    -2.9280    -2.7170 ca         1 FNM      -0.104000
     15 C13          4.0270    -1.7940    -2.2930 ca         1 FNM      -0.092500
     16 C21         -0.6990     1.1690     0.3130 ca         1 FNM       0.050600
     17 C22         -2.0880     1.1700     0.3120 ca         1 FNM      -0.163500
     18 C23         -2.7760     2.3270     0.6230 ca         1 FNM      -0.053000
     19 C24         -2.0830     3.4830     0.9320 ca         1 FNM      -0.144000
     20 C25         -0.7010     3.4850     0.9330 ca         1 FNM      -0.053000
     21 C26         -0.0070     2.3300     0.6300 ca         1 FNM      -0.163500
     22 C27          3.0700     0.0000     3.7190 c3         1 FNM       0.127000
     23 HN1         -0.5000    -0.8340    -0.2370 hn         1 FNM       0.319800
     24 H7           4.4730     1.2180    -2.1420 hc         1 FNM       0.017033
     25 H7A          5.2980     1.3160    -0.5790 hc         1 FNM       0.017033
     26 H7B          3.7470     2.1350    -0.8140 hc         1 FNM       0.017033
     27 H9           5.5040    -1.3870     0.7170 ha         1 FNM       0.130500
     28 H10          6.6900    -3.4150    -0.0360 ha         1 FNM       0.103500
     29 H11          6.1730    -4.4010    -2.2360 ha         1 FNM       0.101000
     30 H12          4.4670    -3.3630    -3.6820 ha         1 FNM       0.103500
     31 H13          3.2790    -1.3360    -2.9290 ha         1 FNM       0.130500
     32 H22         -2.6310     0.2650     0.0700 ha         1 FNM       0.110500
     33 H23         -3.8590     2.3290     0.6230 ha         1 FNM       0.101000
     34 H24         -2.6240     4.3890     1.1730 ha         1 FNM       0.105000
     35 H25         -0.1610     4.3920     1.1780 ha         1 FNM       0.101000
     36 H26          1.0770     2.3330     0.6310 ha         1 FNM       0.110500
     37 H27          3.5960    -0.9320     3.5550 h1         1 FNM       0.043700
     38 H27A         3.6920     0.8270     3.3980 h1         1 FNM       0.043700
     39 H27B         2.8430     0.1060     4.7730 h1         1 FNM       0.043700
@<TRIPOS>BOND
     1     1     2 1   
     2     1    16 1   
     3     1    23 1   
     4     2     3 1   
     5     2     7 1   
     6     3     4 1   
     7     3     5 2   
     8     4    22 1   
     9     5     6 1   
    10     6     7 1   
    11     6     9 1   
    12     6    10 1   
    13     7     8 2   
    14     9    24 1   
    15     9    25 1   
    16     9    26 1   
    17    10    11 ar  
    18    10    15 ar  
    19    11    12 ar  
    20    11    27 1   
    21    12    13 ar  
    22    12    28 1   
    23    13    14 ar  
    24    13    29 1   
    25    14    15 ar  
    26    14    30 1   
    27    15    31 1   
    28    16    17 ar  
    29    16    21 ar  
    30    17    18 ar  
    31    17    32 1   
    32    18    19 ar  
    33    18    33 1   
    34    19    20 ar  
    35    19    34 1   
    36    20    21 ar  
    37    20    35 1   
    38    21    36 1   
    39    22    37 1   
    40    22    38 1   
    41    22    39 1   
@<TRIPOS>SUBSTRUCTURE
     1 FNM         1 TEMP              0 ****  ****    0 ROOT
