@<TRIPOS>MOLECULE
molecule
   15    15     1     0     0
SMALL
bcc


@<TRIPOS>ATOM
      1 F            0.0000     0.0000     0.0000 f          1 FNN      -0.096900
      2 N            0.4120    -0.0000    -2.7710 no         1 FNN       0.298200
      3 C1           3.6320     0.0000     0.0000 ca         1 FNN       0.178100
      4 O1           0.6390     0.0000    -3.9680 o          1 FNN      -0.195000
      5 C2           2.3230     0.0000     0.4590 ca         1 FNN      -0.214000
      6 O2          -0.7370    -0.0060    -2.3690 o          1 FNN      -0.195000
      7 C3           1.2750     0.0000    -0.4450 ca         1 FNN       0.214900
      8 C4           1.5340     0.0000    -1.8050 ca         1 FNN      -0.214200
      9 C5           2.8390     0.0000    -2.2620 ca         1 FNN      -0.032000
     10 C6           3.8870     0.0060    -1.3630 ca         1 FNN      -0.178000
     11 HO           4.8690    -0.8890     1.1260 ho         1 FNN       0.436000
     12 H2           2.1210     0.0590     1.5220 ha         1 FNN       0.173000
     13 H5           3.0390     0.0050    -3.3270 ha         1 FNN       0.176000
     14 H6           4.9090     0.0060    -1.7220 ha         1 FNN       0.162000
     15 O            4.6630    -0.0010     0.8860 oh         1 FNN      -0.513100
@<TRIPOS>BOND
     1     1     7 1
     2     2     4 1
     3     2     6 1
     4     2     8 1
     5    15     3 1
     6     3     5 ar
     7     3    10 ar
     8     5     7 ar
     9     7     8 ar
    10     8     9 ar
    11     9    10 ar
    12    15    11 1
    13     5    12 1
    14     9    13 1
    15    10    14 1
@<TRIPOS>SUBSTRUCTURE
     1 FNN         1 TEMP              0 ****  ****    0 ROOT
