@<TRIPOS>MOLECULE
molecule
   30    31     1     0     0
SMALL
bcc


@<TRIPOS>ATOM
      1 C1           0.0000     0.0000     0.0000 c3         1 FNP       0.317700
      2 C2           6.1390     0.0000     0.0000 ca         1 FNP      -0.113300
      3 C3           6.3070     0.0000     1.3840 ca         1 FNP      -0.070500
      4 C4           5.2340     0.0010     2.2190 ca         1 FNP      -0.184500
      5 C5           3.9350     0.0000     1.6840 ca         1 FNP      -0.030000
      6 C6           2.8030     0.0010     2.5160 ca         1 FNP      -0.184500
      7 C7           1.5600     0.0000     1.9610 ca         1 FNP      -0.070500
      8 C8           1.3910     0.0000     0.5780 ca         1 FNP      -0.113300
      9 C9           2.4660    -0.0050    -0.2580 ca         1 FNP      -0.051000
     10 C10          3.7640     0.0000     0.2770 ca         1 FNP      -0.044000
     11 C11          4.8960     0.0000    -0.5540 ca         1 FNP      -0.051000
     12 F1           0.0120     0.6390    -1.2450 f          1 FNP      -0.279800
     13 F2          -0.8650     0.6800     0.8640 f          1 FNP      -0.279800
     14 P1          -0.5730    -1.7170    -0.2050 p5         1 FNP       1.010700
     15 OP1         -1.9790    -1.7160    -0.6650 o          1 FNP      -0.890167
     16 OP2         -0.4720    -2.4880     1.2050 o          1 FNP      -0.890167
     17 OP3          0.3490    -2.4650    -1.2930 o          1 FNP      -0.890167
     18 F3           8.4230    -0.6020    -0.2280 f          1 FNP      -0.279800
     19 F4           7.0680    -0.7160    -2.0630 f          1 FNP      -0.279800
     20 P2           7.7890     1.7160    -1.3250 p5         1 FNP       1.010700
     21 OP4          8.9610     1.7140    -2.2280 o          1 FNP      -0.890167
     22 OP5          6.5430     2.4190    -2.0630 o          1 FNP      -0.890167
     23 OP6          8.1470     2.5310     0.0160 o          1 FNP      -0.890167
     24 HC3          7.3070    -0.0000     1.8000 ha         1 FNP       0.121500
     25 HC4          5.3800     0.0010     3.2930 ha         1 FNP       0.081000
     26 HC6          2.9180     0.0010     3.5930 ha         1 FNP       0.081000
     27 HC7          0.6890     0.0020     2.6050 ha         1 FNP       0.121500
     28 HC9          2.3200     0.0880    -1.3280 ha         1 FNP       0.155000
     29 H11          4.7800     0.0000    -1.6310 ha         1 FNP       0.155000
     30 C12          7.3510     0.0000    -0.8950 c3         1 FNP       0.317700
@<TRIPOS>BOND
     1     1     8 1
     2     1    12 1
     3     1    13 1
     4     1    14 1
     5     2     3 ar
     6     2    11 ar
     7     2    30 1
     8     3     4 ar
     9     3    24 1
    10     4     5 ar
    11     4    25 1
    12     5     6 ar
    13     5    10 ar
    14     6     7 ar
    15     6    26 1
    16     7     8 ar
    17     7    27 1
    18     8     9 ar
    19     9    10 ar
    20     9    28 1
    21    10    11 ar
    22    11    29 1
    23    30    18 1
    24    30    19 1
    25    30    20 1
    26    14    15 1
    27    14    16 1
    28    14    17 1
    29    20    21 1
    30    20    22 1
    31    20    23 1
@<TRIPOS>SUBSTRUCTURE
     1 FNP         1 TEMP              0 ****  ****    0 ROOT
