@<TRIPOS>MOLECULE
FNP
   30    28     1     0     0
SMALL
bcc


@<TRIPOS>ATOM
      1 C1        192.2800   42.8380    6.0190 c2        1 FNP     -0.080000
      2 C2        197.7500   47.2380    7.0720 c2        1 FNP     -0.019000
      3 C3        197.5280   46.9480    8.5170 c3        1 FNP     -0.139000
      4 C4        196.4840   45.9800    8.8360 c1        1 FNP     -0.252000
      5 C5        195.6370   45.4510    7.8690 c2        1 FNP     -0.232000
      6 C6        194.6890   44.5260    8.3410 c2        1 FNP      0.086000
      7 C7        193.6920   43.7580    7.7840 c2        1 FNP     -0.397000
      8 C8        193.2660   43.6810    6.4430 c2        1 FNP     -0.041000
      9 C9        194.9590   45.4820    5.4980 c1        1 FNP     -0.097000
     10 C10       195.7780   45.8650    6.4670 c2        1 FNP     -0.176000
     11 C11       196.9080   46.7400    6.1430 c2        1 FNP     -0.230000
     12 F1        191.8140   42.7180    4.7510 f         1 FNP     -0.172000
     13 F2        191.5580   41.9520    6.7500 f         1 FNP     -0.172000
     14 P1      -1247.0420 -300.6470  -44.3160 p3        1 FNP      2.449000
     15 OP1     -1247.3890 -299.2330  -44.0850 o         1 FNP     -1.167833
     16 OP2     -1247.0020 -301.5910  -43.1850 o         1 FNP     -1.167833
     17 OP3     -1246.7340 -301.1170  -45.6790 o         1 FNP     -1.167833
     18 F3        200.0550   47.8010    7.4180 f         1 FNP     -0.224500
     19 F4        199.2950   48.1170    5.4350 f         1 FNP     -0.224500
     20 P2        199.2630   50.2790    6.9770 p3        1 FNP      2.449000
     21 OP4       200.6980   50.3450    6.5660 o         1 FNP     -1.167833
     22 OP5       198.2870   50.8990    6.0320 o         1 FNP     -1.167833
     23 OP6       198.9850   50.4730    8.4330 o         1 FNP     -1.167833
     24 HC3       198.4980   46.5980    8.9710 hc        1 FNP      0.124000
     25 HC4       197.2810   47.9220    9.0350 hc        1 FNP      0.124000
     26 HC6       194.7770   44.3770    9.4440 ha        1 FNP      0.093000
     27 HC7       193.1380   43.1060    8.4850 ha        1 FNP      0.075000
     28 HC9       193.7410   44.3370    5.6550 ha        1 FNP      0.213000
     29 H11       197.0520   46.9800    5.0790 ha        1 FNP      0.113000
     30 C12       198.8980   48.1560    6.7530 c2        1 FNP     -0.264000
@<TRIPOS>BOND
     1    1    8 1   
     2    1   12 1   
     3    1   13 1   
     4    2    3 1   
     5    2   11 1   
     6    2   30 1   
     7    3    4 1   
     8    3   24 1   
     9    3   25 1   
    10    4    5 1   
    11    5    6 1   
    12    5   10 1   
    13    6    7 1   
    14    6   26 1   
    15    7    8 1   
    16    7   27 1   
    17    8   28 1   
    18    9   10 1   
    19   10   11 1   
    20   11   29 1   
    21   14   15 1   
    22   14   16 1   
    23   14   17 1   
    24   18   30 1   
    25   19   30 1   
    26   20   21 1   
    27   20   22 1   
    28   20   23 1   
@<TRIPOS>SUBSTRUCTURE
     1 FNP         1 TEMP              0 ****  ****    0 ROOT
