@<TRIPOS>MOLECULE
molecule
   52    54     1     0     0
SMALL
bcc


@<TRIPOS>ATOM
      1 C9A          0.0000     0.0000     0.0000 ca         1 FNR       0.007700
      2 N10          1.4040     0.0000     0.0000 na         1 FNR      -0.183100
      3 CAA          2.0870     0.0000     1.1970 cc         1 FNR       0.207300
      4 N1           3.4320     0.2810     1.2320 ns         1 FNR      -0.438100
      5 C2           4.0940     0.2790     2.4040 c          1 FNR       0.817500
      6 O2           5.2840     0.5300     2.4180 o          1 FNR      -0.659500
      7 N3           3.4630     0.0050     3.5600 ns         1 FNR      -0.562500
      8 C4           2.1450    -0.2760     3.5720 c          1 FNR       0.727100
      9 O4           1.5770    -0.5230     4.6230 o          1 FNR      -0.663500
     10 C4A          1.4300    -0.2800     2.3640 cd         1 FNR      -0.253900
     11 N5           0.0430    -0.5670     2.3450 na         1 FNR      -0.293100
     12 C5A         -0.6870    -0.2850     1.1810 ca         1 FNR       0.067700
     13 C6          -2.0700    -0.2870     1.1930 ca         1 FNR      -0.178000
     14 C7          -2.7700    -0.0040     0.0320 ca         1 FNR      -0.072300
     15 C7M         -4.2770    -0.0050     0.0430 c3         1 FNR      -0.040800
     16 C8          -2.0900     0.2780    -1.1370 ca         1 FNR      -0.099300
     17 C8M         -2.8590     0.5850    -2.3970 c3         1 FNR      -0.039800
     18 C9          -0.7050     0.2860    -1.1550 ca         1 FNR      -0.126000
     19 C1'          2.1410    -0.0030    -1.2670 c3         1 FNR       0.030300
     20 C2'          2.2780    -1.4400    -1.7740 c3         1 FNR       0.119100
     21 O2'          3.0910    -2.1890    -0.8670 oh         1 FNR      -0.585800
     22 C3'          2.9330    -1.4320    -3.1570 c3         1 FNR       0.134100
     23 O3'          2.1200    -0.6830    -4.0630 oh         1 FNR      -0.610800
     24 C4'          3.0710    -2.8680    -3.6640 c3         1 FNR       0.124100
     25 O4'          3.8840    -3.6180    -2.7580 oh         1 FNR      -0.625800
     26 C5'          3.7240    -2.8600    -5.0470 c3         1 FNR       0.197400
     27 O5'          3.7480    -4.1900    -5.5710 os         1 FNR      -0.579200
     28 P            4.3670    -4.5540    -7.0120 p5         1 FNR       1.174900
     29 O1P          3.4900    -3.8510    -8.1660 o          1 FNR      -0.906167
     30 O2P          5.7620    -4.0670    -7.0880 o          1 FNR      -0.906167
     31 O3P          4.3430    -6.1510    -7.2190 o          1 FNR      -0.906167
     32 HN1          3.9200     0.4900     0.3830 hn         1 FNR       0.374500
     33 H3           3.9770     0.0100     4.4190 hn         1 FNR       0.358500
     34 H5          -0.3610    -1.1340     3.0640 hn         1 FNR       0.303700
     35 H7          -2.6040    -0.4460     2.1220 ha         1 FNR       0.132000
     36 H7M1        -4.6310    -0.2800     1.0290 hc         1 FNR       0.038033
     37 H7M2        -4.6400     0.9840    -0.2080 hc         1 FNR       0.038033
     38 H7M3        -4.6430    -0.7200    -0.6840 hc         1 FNR       0.038033
     39 H8M1        -3.4270    -0.2880    -2.6940 hc         1 FNR       0.042033
     40 H8M2        -2.1670     0.8520    -3.1860 hc         1 FNR       0.042033
     41 H8M3        -3.5350     1.4110    -2.2150 hc         1 FNR       0.042033
     42 H9          -0.1750     0.5080    -2.0740 ha         1 FNR       0.155000
     43 H1'1         3.1260     0.4210    -1.1130 h1         1 FNR       0.064200
     44 H1'2         1.6040     0.5890    -1.9980 h1         1 FNR       0.064200
     45 H6           1.2980    -1.8950    -1.8410 h1         1 FNR       0.055700
     46 H2'          2.6230    -2.9580    -0.5880 ho         1 FNR       0.412000
     47 H4           3.9130    -0.9770    -3.0900 h1         1 FNR       0.049700
     48 H3'          2.6490    -0.0350    -4.4970 ho         1 FNR       0.407000
     49 H2           2.0910    -3.3240    -3.7300 h1         1 FNR       0.036700
     50 H4'          3.7580    -4.5390    -2.9120 ho         1 FNR       0.425000
     51 H5'1         4.7380    -2.4870    -4.9660 h1         1 FNR       0.021700
     52 H5'2         3.1560    -2.2210    -5.7120 h1         1 FNR       0.021700
@<TRIPOS>BOND
     1     1     2 1
     2     1    12 ar
     3     1    18 ar
     4     2     3 1
     5     2    19 1
     6     3     4 1
     7     3    10 2
     8     4     5 1
     9     4    32 1
    10     5     6 2
    11     5     7 1
    12     7     8 1
    13     7    33 1
    14     8     9 2
    15     8    10 1
    16    10    11 1
    17    11    12 1
    18    11    34 1
    19    12    13 ar
    20    13    14 ar
    21    13    35 1
    22    14    15 1
    23    14    16 ar
    24    15    36 1
    25    15    37 1
    26    15    38 1
    27    16    17 1
    28    16    18 ar
    29    17    39 1
    30    17    40 1
    31    17    41 1
    32    18    42 1
    33    19    20 1
    34    19    43 1
    35    19    44 1
    36    20    21 1
    37    20    22 1
    38    20    45 1
    39    21    46 1
    40    22    23 1
    41    22    24 1
    42    22    47 1
    43    23    48 1
    44    24    25 1
    45    24    26 1
    46    24    49 1
    47    25    50 1
    48    26    27 1
    49    26    51 1
    50    26    52 1
    51    27    28 1
    52    28    29 1
    53    28    30 1
    54    28    31 1
@<TRIPOS>SUBSTRUCTURE
     1 FNR         1 TEMP              0 ****  ****    0 ROOT
