@<TRIPOS>MOLECULE
molecule
   54    56     1     0     0
SMALL
bcc


@<TRIPOS>ATOM
      1 N1           0.0000     0.0000     0.0000 nc         1 FNS      -0.461400
      2 C2           1.3300     0.0000     0.0000 cd         1 FNS       0.436000
      3 O2           1.9020     0.0020    -1.0760 o          1 FNS      -0.363000
      4 N3           2.0820     0.0000     1.1110 ns         1 FNS      -0.587500
      5 C4           1.5180    -0.0020     2.3410 c          1 FNS       0.658100
      6 O4           2.1970    -0.0010     3.3500 o          1 FNS      -0.497500
      7 C4A          0.0390    -0.0020     2.4060 cd         1 FNS      -0.150900
      8 N5          -0.6090    -0.0030     3.5420 na         1 FNS      -0.035600
      9 S            0.2350    -0.0030     4.9670 s6         1 FNS       1.359800
     10 O1S          0.6440     1.3710     5.2120 o          1 FNS      -0.649200
     11 O2S         -0.6720    -0.4930     5.9920 o          1 FNS      -0.649200
     12 O3S          1.3750    -0.8860     4.7790 o          1 FNS      -0.649200
     13 C5A         -1.9490    -0.0040     3.5650 ca         1 FNS      -0.049300
     14 C6          -2.6280    -0.0050     4.7990 ca         1 FNS      -0.149000
     15 C7          -3.9890    -0.0060     4.8260 ca         1 FNS      -0.096300
     16 C7M         -4.7080    -0.0060     6.1500 c3         1 FNS      -0.039800
     17 C8          -4.7240    -0.0040     3.6450 ca         1 FNS      -0.049300
     18 C8M         -6.2290    -0.0050     3.7020 c3         1 FNS      -0.046800
     19 C9          -4.0870    -0.0030     2.4230 ca         1 FNS      -0.151000
     20 C9A         -2.6960    -0.0030     2.3660 ca         1 FNS       0.049700
     21 N10         -2.0540    -0.0020     1.1450 na         1 FNS      -0.087100
     22 C10         -0.6920    -0.0010     1.1280 cc         1 FNS       0.305100
     23 C1'         -2.8200    -0.0010    -0.1040 c3         1 FNS       0.035300
     24 C2'         -3.0870     1.4410    -0.5380 c3         1 FNS       0.125100
     25 O2'         -3.8330     2.1140     0.4790 oh         1 FNS      -0.591800
     26 C3'         -3.8860     1.4420    -1.8420 c3         1 FNS       0.135100
     27 O3'         -3.1400     0.7690    -2.8580 oh         1 FNS      -0.595800
     28 C4'         -4.1530     2.8850    -2.2760 c3         1 FNS       0.125100
     29 O4'         -4.9000     3.5570    -1.2590 oh         1 FNS      -0.614800
     30 C5'         -4.9530     2.8840    -3.5800 c3         1 FNS       0.192400
     31 O5'         -5.1020     4.2280    -4.0480 os         1 FNS      -0.590200
     32 P           -5.8920     4.6030    -5.3990 p5         1 FNS       1.207900
     33 O1P         -7.2610     4.0420    -5.3430 o          1 FNS      -0.727167
     34 O2P         -5.9750     6.2040    -5.5440 o          1 FNS      -0.727167
     35 O3P         -5.1120     3.9870    -6.6660 o          1 FNS      -0.727167
     36 HN3          3.0790     0.0000     1.0280 hn         1 FNS       0.346500
     37 H6          -2.0680     0.0520     5.7250 ha         1 FNS       0.264000
     38 HM71        -3.9830    -0.0290     6.9550 hc         1 FNS       0.040700
     39 HM72        -5.3460    -0.8800     6.2150 hc         1 FNS       0.040700
     40 HM73        -5.3120     0.8890     6.2340 hc         1 FNS       0.040700
     41 HM81        -6.5680    -0.8390     4.3040 hc         1 FNS       0.043700
     42 HM82        -6.6290    -0.0980     2.7000 hc         1 FNS       0.043700
     43 HM83        -6.5740     0.9220     4.1440 hc         1 FNS       0.043700
     44 H9          -4.6680    -0.0020     1.5090 ha         1 FNS       0.161000
     45 H1'1        -2.2550    -0.5120    -0.8740 h1         1 FNS       0.084700
     46 H1'2        -3.7630    -0.5120     0.0510 h1         1 FNS       0.084700
     47 H2'         -2.1440     1.9520    -0.6920 h1         1 FNS       0.067700
     48 HO2'        -3.4090     2.9290     0.6930 ho         1 FNS       0.413000
     49 H3'         -4.8290     0.9300    -1.6880 h1         1 FNS       0.045700
     50 HO3'        -3.7030     0.1650    -3.3140 ho         1 FNS       0.406000
     51 H4'         -3.2110     3.3960    -2.4300 h1         1 FNS       0.047700
     52 HO4'        -4.8280     4.4900    -1.3810 ho         1 FNS       0.419000
     53 H5'1        -4.4290     2.2980    -4.3250 h1         1 FNS       0.030700
     54 H5'2        -5.9310     2.4530    -3.4040 h1         1 FNS       0.030700
@<TRIPOS>BOND
     1     1     2 2
     2     1    22 1
     3     2     3 1
     4     2     4 1
     5     4     5 1
     6     4    36 1
     7     5     6 2
     8     5     7 1
     9     7     8 1
    10     7    22 2
    11     8     9 1
    12     8    13 1
    13     9    10 1
    14     9    11 1
    15     9    12 1
    16    13    14 ar
    17    13    20 ar
    18    14    15 ar
    19    14    37 1
    20    15    16 1
    21    15    17 ar
    22    16    38 1
    23    16    39 1
    24    16    40 1
    25    17    18 1
    26    17    19 ar
    27    18    41 1
    28    18    42 1
    29    18    43 1
    30    19    20 ar
    31    19    44 1
    32    20    21 1
    33    21    22 1
    34    21    23 1
    35    23    24 1
    36    23    45 1
    37    23    46 1
    38    24    25 1
    39    24    26 1
    40    24    47 1
    41    25    48 1
    42    26    27 1
    43    26    28 1
    44    26    49 1
    45    27    50 1
    46    28    29 1
    47    28    30 1
    48    28    51 1
    49    29    52 1
    50    30    31 1
    51    30    53 1
    52    30    54 1
    53    31    32 1
    54    32    33 1
    55    32    34 1
    56    32    35 1
@<TRIPOS>SUBSTRUCTURE
     1 FNS         1 TEMP              0 ****  ****    0 ROOT
