@<TRIPOS>MOLECULE
FNT
   30    31     1     0     0
SMALL
bcc


@<TRIPOS>ATOM
      1 C1           0.0000     0.0000     0.0000 ca         1 FNT      -0.084000
      2 Cl1          1.3200    -0.0000    -2.7260 cl         1 FNT      -0.098000
      3 C2           1.4020     0.0000     0.0000 ca         1 FNT      -0.123300
      4 C3           2.0950     0.0000     1.2360 ca         1 FNT      -0.071000
      5 C4           1.3730    -0.0010     2.4360 ca         1 FNT      -0.076000
      6 C5           0.0090    -0.0010     2.3980 ca         1 FNT      -0.104000
      7 C6          -0.6740    -0.0010     1.1850 ca         1 FNT      -0.102000
      8 C7           2.1450    -0.0000    -1.1980 ca         1 FNT       0.384300
      9 N8           3.4530     0.0000    -1.1660 nb         1 FNT      -0.504000
     10 C9           4.1480    -0.0000    -0.0230 ca         1 FNT       0.297800
     11 C08          8.2340    -1.4390    -1.2040 c3         1 FNT       0.011900
     12 C10          3.5080    -0.0000     1.2120 ca         1 FNT       0.088800
     13 C12          5.6220    -0.0000    -0.0730 c          1 FNT       0.448600
     14 O13          6.2660    -0.0000     0.9580 o          1 FNT      -0.682100
     15 N14          6.2560    -0.0010    -1.2630 ns         1 FNT      -0.099900
     16 C15          7.7200    -0.0020    -1.3130 c3         1 FNT      -0.111300
     17 C16          8.1780     0.5990    -2.6170 c          1 FNT       0.976600
     18 O17          7.3650     0.9870    -3.4220 o          1 FNT      -0.888300
     19 O18          9.4890     0.7020    -2.8840 o          1 FNT      -0.888300
     20 O19          4.2210    -0.0000     2.3640 oh         1 FNT      -0.452100
     21 H1          -0.5450     0.0000    -0.9360 ha         1 FNT       0.116000
     22 H4           1.8930    -0.0010     3.3860 ha         1 FNT       0.114000
     23 H5          -0.5500    -0.0020     3.3260 ha         1 FNT       0.097000
     24 H6          -1.7570    -0.0010     1.1830 ha         1 FNT       0.097000
     25 H08B         8.7150    -1.7220    -2.1330 hc         1 FNT      -0.002633
     26 HN14         5.7260    -0.0230    -2.1120 hn         1 FNT       0.202500
     27 H15          8.1100     0.5840    -0.4890 h1         1 FNT       0.054700
     28 HO19         4.2300    -0.8700     2.7280 ho         1 FNT       0.402000
     29 H08          8.9470    -1.5070    -0.3920 hc         1 FNT      -0.002633
     30 H08A         7.4020    -2.1060    -1.0110 hc         1 FNT      -0.002633
@<TRIPOS>BOND
     1     1     3 ar  
     2     1     7 ar  
     3     1    21 1   
     4     2     8 1   
     5     3     4 ar  
     6     3     8 ar  
     7     4     5 ar  
     8     4    12 ar  
     9     5     6 ar  
    10     5    22 1   
    11     6     7 ar  
    12     6    23 1   
    13     7    24 1   
    14     8     9 ar  
    15     9    10 ar  
    16    10    12 ar  
    17    10    13 1   
    18    11    16 1   
    19    11    25 1   
    20    11    29 1   
    21    11    30 1   
    22    12    20 1   
    23    13    14 2   
    24    13    15 1   
    25    15    16 1   
    26    15    26 1   
    27    16    17 1   
    28    16    27 1   
    29    17    18 1   
    30    17    19 1   
    31    20    28 1   
@<TRIPOS>SUBSTRUCTURE
     1 FNT         1 TEMP              0 ****  ****    0 ROOT
