@<TRIPOS>MOLECULE
molecule
   72    77     1     0     0
SMALL
bcc


@<TRIPOS>ATOM
      1 C4           0.0000     0.0000     0.0000 ca         1 FNV       0.530600
      2 C5           1.3970     0.0000     0.0000 ca         1 FNV      -0.305400
      3 C6           2.0530     0.0000     1.2570 ca         1 FNV       0.677200
      4 N1           1.3220    -0.0000     2.3610 nb         1 FNV      -0.833000
      5 N3          -0.6520    -0.0050     1.1700 nb         1 FNV      -0.752000
      6 C2           0.0020    -0.0000     2.3090 ca         1 FNV       0.713900
      7 CAI          6.5790    -2.5180     7.0220 ca         1 FNV      -0.067000
      8 CAJ          6.8770    -3.8170     7.3700 ca         1 FNV      -0.181000
      9 CAK          1.9390     0.0000    -1.3460 cc         1 FNV      -0.059200
     10 CAL          9.6980    -4.6950     5.3360 cc         1 FNV      -0.130200
     11 CAM          5.3870     0.9170     2.6380 c3         1 FNV      -0.081900
     12 CAN          4.1970    -1.1780     3.2880 c3         1 FNV      -0.081900
     13 CAO          6.0620     0.9170     4.0120 c3         1 FNV       0.114300
     14 CAP          4.9070    -1.1180     4.6440 c3         1 FNV       0.114300
     15 CAQ          4.5630    -7.8510     5.6110 c3         1 FNV      -0.250600
     16 CAR          6.1320    -9.3150     7.6050 c3         1 FNV      -0.663000
     17 CAS          6.9810    -0.5140     5.7360 c3         1 FNV      -0.159900
     18 CBB          4.2630    -9.2690     6.0140 c          1 FNV       0.662500
     19 CBC          8.3760    -2.4740     5.4440 ca         1 FNV      -0.010300
     20 CBD          1.0360    -0.0000    -2.3070 cd         1 FNV      -0.141600
     21 CBE          9.5370    -5.8610     6.0170 cd         1 FNV       0.039200
     22 CBF          7.3300    -1.8520     6.0620 ca         1 FNV      -0.115300
     23 CBH          8.6990    -3.7950     5.7810 ca         1 FNV      -0.136800
     24 CBK          7.9390    -4.4720     6.7540 ca         1 FNV      -0.004200
     25 CBL          4.0170     0.2430     2.7490 c3         1 FNV       0.126500
     26 CBM          6.5930    -8.0680     6.8460 c3         1 FNV       0.192100
     27 CBP          1.4720    -1.4440    -4.2760 c3         1 FNV       0.627900
     28 FAD          2.4850    -2.1040    -3.5730 f          1 FNV      -0.221633
     29 FAE          0.2530    -2.0960    -4.0590 f          1 FNV      -0.221633
     30 FAF          1.7690    -1.4540    -5.6430 f          1 FNV      -0.221633
     31 NAB         10.9730    -7.9700     5.7260 n1         1 FNV      -0.354800
     32 NAX          5.0020    -9.9300     6.9130 ns         1 FNV      -0.264900
     33 NAY          3.4350    -0.0010     1.3280 nu         1 FNV      -0.883900
     34 NBN          6.2130    -0.4660     4.4850 n3         1 FNV      -0.721600
     35 NBO          8.4690    -5.7350     6.8830 na         1 FNV       0.018600
     36 OAZ          5.4490    -7.2550     6.5620 os         1 FNV      -0.369600
     37 SBA         -0.5920     0.0000    -1.6550 ss         1 FNV      -0.130900
     38 H1          -0.7780    -0.2070     3.0310 h5         1 FNV       0.074100
     39 H2           9.1040    -0.7120     4.7360 hc         1 FNV       0.065367
     40 H3           9.9530    -2.4420     4.1070 hc         1 FNV       0.065367
     41 H4           8.4630    -1.6480     3.5990 hc         1 FNV       0.065367
     42 H5           5.7350    -2.2370     7.6410 ha         1 FNV       0.138000
     43 H6           6.3930    -4.2290     8.2470 ha         1 FNV       0.132000
     44 H7           2.8570     0.0690    -1.9170 ha         1 FNV       0.169000
     45 H8          10.3040    -4.4220     4.4810 ha         1 FNV       0.163000
     46 H9           5.3050     1.9500     2.3240 hc         1 FNV       0.077450
     47 H10          5.9700     0.4510     1.8530 hc         1 FNV       0.077450
     48 H11          3.2340    -1.6030     3.5450 hc         1 FNV       0.077450
     49 H12          4.4590    -1.7640     2.4160 hc         1 FNV       0.077450
     50 H13          7.0900     1.2340     3.8820 h1         1 FNV       0.073950
     51 H14          5.7610     1.6460     4.7540 h1         1 FNV       0.073950
     52 H15          4.2640    -0.7820     5.4490 h1         1 FNV       0.073950
     53 H16          4.9500    -2.1960     4.7380 h1         1 FNV       0.073950
     54 H17          4.5220    -6.9130     6.1510 h1         1 FNV       0.231700
     55 H18          4.0850    -7.7750     4.6420 h1         1 FNV       0.231700
     56 H19          5.5790   -10.0320     7.0100 h1         1 FNV       0.226700
     57 H20          6.9080    -9.7210     8.2440 h1         1 FNV       0.226700
     58 H21          7.6660     0.0300     5.0960 h1         1 FNV       0.196200
     59 H22          6.0300    -0.6760     5.2440 h1         1 FNV       0.196200
     60 H23          2.0610     0.8210    -3.8750 hc         1 FNV       0.105200
     61 H24          0.3020     0.0780    -3.9870 hc         1 FNV       0.105200
     62 H25          8.2400    -7.3450     8.6760 h1         1 FNV       0.085700
     63 H26          7.3250    -6.4080     8.5700 h1         1 FNV       0.085700
     64 H27          3.3460     0.8810     3.3130 h1         1 FNV       0.082700
     65 H28          6.9840    -8.4780     5.9230 h1         1 FNV       0.030700
     66 H29          4.2380   -10.4410     7.3090 hn         1 FNV       0.317500
     67 H30          3.7560     0.6430     2.0240 hn         1 FNV       0.494800
     68 CAT          1.3620    -0.0010    -3.7790 c3         1 FNV      -0.073200
     69 CAA          9.1830    -1.7400     4.4030 c3         1 FNV      -0.074800
     70 CAG         10.3460    -7.0320     5.8600 ch         1 FNV       0.229500
     71 CAU          7.9810    -6.7770     7.7910 c3         1 FNV      -0.041700
     72 OAC          3.3180    -9.8340     5.5040 o          1 FNV      -0.589500
@<TRIPOS>BOND
     1    72    18 2
     2    13    11 1
     3    13    34 1
     4    11    25 1
     5    15    18 1
     6    15    36 1
     7    18    32 1
     8    17    34 1
     9    17    22 1
    10    34    14 1
    11    36    26 1
    12    28    27 1
    13     7    22 ar
    14     7     8 ar
    15    22    19 ar
    16    25    33 1
    17    25    12 1
    18    32    16 1
    19     4     6 ar
    20     4     3 ar
    21     8    24 ar
    22    33     3 1
    23     6     5 ar
    24    30    27 1
    25    19    69 1
    26    19    23 ar
    27     3     2 ar
    28    14    12 1
    29    27    29 1
    30    27    68 1
    31     5     1 ar
    32     2     1 ar
    33     2     9 1
    34    26    16 1
    35    26    71 1
    36    24    23 ar
    37    24    35 1
    38     1    37 1
    39    23    10 1
    40     9    20 2
    41    20    37 1
    42    20    68 1
    43    35    71 1
    44    35    21 1
    45    10    21 2
    46    21    70 1
    47    70    31 3
    48     6    38 1
    49    69    39 1
    50    69    40 1
    51    69    41 1
    52     7    42 1
    53     8    43 1
    54     9    44 1
    55    10    45 1
    56    11    46 1
    57    11    47 1
    58    12    48 1
    59    12    49 1
    60    13    50 1
    61    13    51 1
    62    14    52 1
    63    14    53 1
    64    15    54 1
    65    15    55 1
    66    16    56 1
    67    16    57 1
    68    17    58 1
    69    17    59 1
    70    68    60 1
    71    68    61 1
    72    71    62 1
    73    71    63 1
    74    25    64 1
    75    26    65 1
    76    32    66 1
    77    33    67 1
@<TRIPOS>SUBSTRUCTURE
     1 FNV         1 TEMP              0 ****  ****    0 ROOT
