@<TRIPOS>MOLECULE
FNX
   40    43     1     0     0
SMALL
bcc


@<TRIPOS>ATOM
      1 O3           0.0000     0.0000     0.0000 o          1 FNX      -0.334000
      2 CP1          1.2120     0.0000     0.0000 c2         1 FNX       0.201000
      3 N5           1.8870     0.0000     1.1680 n          1 FNX      -0.017000
      4 C6           1.1720     0.1060     2.4480 DU         1 FNX      -0.148000
      5 C7           2.1780     0.1730     3.6010 c3         1 FNX      -0.144000
      6 N8           3.1370    -0.9380     3.4770 n7         1 FNX       0.246000
      7 C8A          3.7170    -1.1080     2.2590 c2         1 FNX       0.024000
      8 C4A          3.3510    -0.1100     1.1900 c3         1 FNX      -0.093000
      9 C4           3.8760    -0.5610    -0.1400 c2         1 FNX       0.262000
     10 O4           3.5600     0.0480    -1.1430 o          1 FNX      -0.221000
     11 N3           4.6770    -1.6110    -0.2430 n2         1 FNX      -0.168000
     12 C2           5.0260    -2.3350     0.8100 c2         1 FNX      -0.172000
     13 NA2          5.9140    -3.3620     0.6450 nz         1 FNX       0.965000
     14 N1           4.5410    -2.0850     2.0260 n2         1 FNX      -0.287000
     15 C9           0.3270     1.3540     2.4480 c2         1 FNX      -0.390000
     16 N10         -0.9390     1.2750     2.6900 n2         1 FNX       0.166000
     17 C14         -1.7090     2.4120     2.6890 ca         1 FNX      -0.116000
     18 C13         -2.9440     2.4220     2.0400 ca         1 FNX      -0.041000
     19 C12         -3.7130     3.5660     2.0440 ca         1 FNX      -0.112000
     20 C15         -1.2630     3.5610     3.3430 ca         1 FNX      -0.041000
     21 C16         -2.0420     4.6990     3.3400 ca         1 FNX      -0.112000
     22 C11         -3.2630     4.7040     2.6890 ca         1 FNX      -0.029000
     23 C           -4.1080     5.9510     2.6890 c3         1 FNX      -0.071000
     24 H1           1.7540     0.0330    -0.9380 h5         1 FNX       0.137000
     25 H2           0.5380    -0.7630     2.5770 ha         1 FNX       0.085000
     26 H3           2.7190     1.1100     3.5380 h1         1 FNX       0.105000
     27 H4           1.6440     0.0710     4.5380 h1         1 FNX       0.105000
     28 H5           3.3510    -1.5370     4.2500 hn         1 FNX       0.111000
     29 H6           3.7800     0.8530     1.4360 h1         1 FNX       0.131000
     30 H7           6.7470    -3.1690     1.1650 hn         1 FNX       0.021667
     31 H8           6.1410    -3.4540    -0.3260 hn         1 FNX       0.021667
     32 H9           0.6790     0.8540     3.3420 DU         1 FNX       0.262000
     33 H10         -3.2980     1.5320     1.5340 ha         1 FNX       0.113500
     34 H11         -4.6710     3.5750     1.5380 ha         1 FNX       0.118000
     35 H12         -0.3070     3.5580     3.8530 ha         1 FNX       0.113500
     36 H13         -1.6960     5.5930     3.8460 ha         1 FNX       0.118000
     37 H14         -3.9040     6.5260     3.5840 hc         1 FNX       0.056000
     38 H15         -3.8730     6.5470     1.8150 hc         1 FNX       0.056000
     39 H16         -5.1560     5.6770     2.6670 hc         1 FNX       0.056000
     40 HA23         5.5020    -4.2150     0.9670 hn         1 FNX       0.021667
@<TRIPOS>BOND
     1     1     2 1   
     2     2     3 1   
     3     2    24 1   
     4     3     4 1   
     5     3     8 1   
     6     4     5 1   
     7     4    15 1   
     8     4    25 1   
     9     4    32 1   
    10     5     6 1   
    11     5    26 1   
    12     5    27 1   
    13     6     7 1   
    14     6    28 1   
    15     7     8 1   
    16     7    14 1   
    17     8     9 1   
    18     8    29 1   
    19     9    10 1   
    20     9    11 1   
    21    11    12 1   
    22    12    13 1   
    23    12    14 1   
    24    13    30 1   
    25    13    31 1   
    26    13    40 1   
    27    15    16 1   
    28    15    32 1   
    29    16    17 1   
    30    17    18 1   
    31    17    20 1   
    32    18    19 1   
    33    18    33 1   
    34    19    22 1   
    35    19    34 1   
    36    20    21 1   
    37    20    35 1   
    38    21    22 1   
    39    21    36 1   
    40    22    23 1   
    41    23    37 1   
    42    23    38 1   
    43    23    39 1   
@<TRIPOS>SUBSTRUCTURE
     1 FNX         1 TEMP              0 ****  ****    0 ROOT
