@<TRIPOS>MOLECULE
molecule
   40    42     1     0     0
SMALL
bcc


@<TRIPOS>ATOM
      1 O3           0.0000     0.0000     0.0000 o          1 FNX      -0.535100
      2 CP1          1.2120     0.0000     0.0000 c          1 FNX       0.641900
      3 N5           1.8870     0.0000     1.1680 n          1 FNX      -0.510800
      4 C6           1.1720     0.1060     2.4480 c3         1 FNX       0.059400
      5 C7           2.1780     0.1730     3.6010 c3         1 FNX       0.197800
      6 N8           3.1370    -0.9380     3.4770 nu         1 FNX      -0.756200
      7 C8A          3.7170    -1.1080     2.2590 c2         1 FNX       0.768200
      8 C4A          3.3510    -0.1100     1.1900 c3         1 FNX      -0.101600
      9 C4           3.8760    -0.5610    -0.1400 c          1 FNX       0.720500
     10 O4           3.5600     0.0480    -1.1430 o          1 FNX      -0.443100
     11 N3           4.6770    -1.6110    -0.2430 ne         1 FNX      -0.749100
     12 C2           5.0260    -2.3350     0.8100 cf         1 FNX       0.822200
     13 NA2          5.9140    -3.3620     0.6450 nz         1 FNX      -0.734600
     14 N1           4.5410    -2.0850     2.0260 nf         1 FNX      -0.909000
     15 C9           0.3270     1.3540     2.4480 c2         1 FNX       0.378200
     16 N10         -0.9390     1.2750     2.6900 ne         1 FNX      -0.508100
     17 C14         -1.7090     2.4120     2.6890 ca         1 FNX       0.091400
     18 C13         -2.9440     2.4220     2.0400 ca         1 FNX      -0.113500
     19 C12         -3.7130     3.5660     2.0440 ca         1 FNX      -0.120500
     20 C15         -1.2630     3.5610     3.3430 ca         1 FNX      -0.113500
     21 C16         -2.0420     4.6990     3.3400 ca         1 FNX      -0.120500
     22 C11         -3.2630     4.7040     2.6890 ca         1 FNX      -0.063300
     23 C           -4.1080     5.9510     2.6890 c3         1 FNX      -0.052800
     24 H1           1.7540     0.0150    -0.9380 h5         1 FNX       0.084200
     25 H2           0.5380    -0.7630     2.5770 h1         1 FNX       0.107700
     26 H3           1.6440     0.0710     4.5380 h1         1 FNX       0.095200
     27 H4           2.7190     1.1100     3.5380 h1         1 FNX       0.095200
     28 H5           3.3510    -1.5370     4.2500 hn         1 FNX       0.485800
     29 H6           3.7800     0.8530     1.4360 h1         1 FNX       0.121700
     30 H7           5.4750    -4.1040     0.1360 hn         1 FNX       0.485800
     31 H8           6.2050    -3.6990     1.5410 hn         1 FNX       0.485800
     32 H9           0.7810     2.3160     2.2450 h4         1 FNX      -0.007200
     33 H10         -3.2980     1.5320     1.5340 ha         1 FNX       0.138000
     34 H11         -4.6710     3.5750     1.5380 ha         1 FNX       0.142000
     35 H12         -0.3070     3.5580     3.8530 ha         1 FNX       0.138000
     36 H13         -1.6960     5.5930     3.8460 ha         1 FNX       0.142000
     37 H14         -4.6740     6.0040     1.7660 hc         1 FNX       0.050700
     38 H15         -4.7910     5.9250     3.5300 hc         1 FNX       0.050700
     39 H16         -3.4680     6.8220     2.7710 hc         1 FNX       0.050700
     40 HA23         6.6600    -3.0650     0.0480 hn         1 FNX       0.485800
@<TRIPOS>BOND
     1     1     2 2
     2    10     9 2
     3     2     3 1
     4     9    11 1
     5     9     8 1
     6    11    12 2
     7     3     8 1
     8     3     4 1
     9     8     7 1
    10    12    13 1
    11    12    14 1
    12     4     5 1
    13     4    15 1
    14     7    14 2
    15     7     6 1
    16     5     6 1
    17    16    15 2
    18    16    17 1
    19    20    17 ar
    20    20    21 ar
    21    17    18 ar
    22    21    22 ar
    23    18    19 ar
    24    22    19 ar
    25    22    23 1
    26     2    24 1
    27     4    25 1
    28     5    26 1
    29     5    27 1
    30     6    28 1
    31     8    29 1
    32    13    30 1
    33    13    31 1
    34    15    32 1
    35    18    33 1
    36    19    34 1
    37    20    35 1
    38    21    36 1
    39    23    37 1
    40    23    38 1
    41    23    39 1
    42    40    13 1
@<TRIPOS>SUBSTRUCTURE
     1 FNX         1 TEMP              0 ****  ****    0 ROOT
