@<TRIPOS>MOLECULE
molecule
   39    41     1     0     0
SMALL
bcc


@<TRIPOS>ATOM
      1 C1           1.5300     0.0000     0.0000 c3         1 FNZ       0.113300
      2 C2           0.0000     0.0000     0.0000 c3         1 FNZ       0.142100
      3 C3          -0.5100    -0.0000    -1.4420 c3         1 FNZ      -0.052100
      4 C4          -2.0120     0.1240    -1.4430 ca         1 FNZ      -0.111300
      5 C5          -2.6020     1.3740    -1.4790 ca         1 FNZ      -0.096500
      6 C6          -3.9790     1.4890    -1.4800 ca         1 FNZ      -0.167000
      7 C7          -4.7680     0.3510    -1.4460 ca         1 FNZ       0.134900
      8 C8          -4.1760    -0.9000    -1.4110 ca         1 FNZ      -0.167000
      9 C9          -2.7980    -1.0120    -1.4150 ca         1 FNZ      -0.096500
     10 C10          2.0330     0.0000     1.4210 ca         1 FNZ      -0.083300
     11 C11          2.8360    -1.0340     1.8670 ca         1 FNZ      -0.112000
     12 C12          3.2990    -1.0410     3.1660 ca         1 FNZ      -0.088000
     13 C13          2.9560    -0.0000     4.0320 ca         1 FNZ      -0.009000
     14 C14          2.1460     1.0410     3.5750 ca         1 FNZ      -0.088000
     15 C15          1.6940     1.0370     2.2720 ca         1 FNZ      -0.112000
     16 C16          3.4330    -0.0010     5.3820 cg         1 FNZ       0.234800
     17 C17          3.2260     2.5300    -1.9160 cc         1 FNZ       0.566900
     18 C18          1.4640     2.4210    -0.6700 cd         1 FNZ       0.435400
     19 O2          -0.4770    -1.1670     0.6740 oh         1 FNZ      -0.589800
     20 F7          -6.1150     0.4620    -1.4480 f          1 FNZ      -0.138900
     21 N1           3.8290    -0.0080     6.4460 n1         1 FNZ      -0.352800
     22 N2           2.0180     1.1960    -0.6900 na         1 FNZ      -0.066400
     23 N3           3.1620     1.2930    -1.4990 nd         1 FNZ      -0.537800
     24 N4           2.1980     3.2120    -1.4100 nc         1 FNZ      -0.758000
     25 H1           1.8920    -0.8840    -0.5110 h1         1 FNZ       0.105700
     26 H2          -0.3610     0.8850     0.5110 h1         1 FNZ       0.038700
     27 H3C1        -0.1490     0.8840    -1.9530 hc         1 FNZ       0.069200
     28 H3C2        -0.1490    -0.8850    -1.9520 hc         1 FNZ       0.069200
     29 H5          -1.9850     2.2640    -1.5070 ha         1 FNZ       0.141000
     30 H6          -4.4410     2.4680    -1.5090 ha         1 FNZ       0.148000
     31 H8          -4.7930    -1.7900    -1.3850 ha         1 FNZ       0.148000
     32 H9          -2.3350    -1.9910    -1.3920 ha         1 FNZ       0.141000
     33 H11          3.1020    -1.8410     1.1950 ha         1 FNZ       0.139500
     34 H12          3.9280    -1.8520     3.5130 ha         1 FNZ       0.147000
     35 H14          1.8770     1.8510     4.2420 ha         1 FNZ       0.147000
     36 H15          1.0680     1.8470     1.9170 ha         1 FNZ       0.139500
     37 H18          0.5660     2.7040    -0.1340 h5         1 FNZ       0.066100
     38 HA          -1.0980    -0.9150     1.3370 ho         1 FNZ       0.416000
     39 H17          3.9900     2.9460    -2.5620 h5         1 FNZ       0.083100
@<TRIPOS>BOND
     1     1     2 1
     2     1    10 1
     3     1    22 1
     4     1    25 1
     5     2     3 1
     6     2    19 1
     7     2    26 1
     8     3     4 1
     9     3    27 1
    10     3    28 1
    11     4     5 ar
    12     4     9 ar
    13     5     6 ar
    14     5    29 1
    15     6     7 ar
    16     6    30 1
    17     7     8 ar
    18     7    20 1
    19     8     9 ar
    20     8    31 1
    21     9    32 1
    22    10    11 ar
    23    10    15 ar
    24    11    12 ar
    25    11    33 1
    26    12    13 ar
    27    12    34 1
    28    13    14 ar
    29    13    16 1
    30    14    15 ar
    31    14    35 1
    32    15    36 1
    33    16    21 3
    34    17    23 2
    35    17    24 1
    36    17    39 1
    37    18    22 1
    38    18    24 2
    39    18    37 1
    40    19    38 1
    41    22    23 1
@<TRIPOS>SUBSTRUCTURE
     1 FNZ         1 TEMP              0 ****  ****    0 ROOT
