@<TRIPOS>MOLECULE
molecule
   43    45     1     0     0
SMALL
bcc


@<TRIPOS>ATOM
      1 N1           0.0000     0.0000     0.0000 nc         1 FO1      -0.475400
      2 C1           1.3290     0.0000     0.0000 c          1 FO1       0.858900
      3 O1           1.9010    -0.0020    -1.0760 o          1 FO1      -0.616500
      4 N2           2.0790     0.0000     1.1120 ns         1 FO1      -0.590500
      5 C2           1.5100     0.0010     2.3410 c          1 FO1       0.726100
      6 O2           2.1860     0.0010     3.3510 o          1 FO1      -0.619500
      7 C3           0.0400     0.0020     2.3990 cd         1 FO1      -0.277600
      8 C4          -0.6500     0.0020     3.5960 cc         1 FO1       0.058000
      9 C5          -2.0630     0.0020     3.5670 ca         1 FO1      -0.161000
     10 C6          -2.7910     0.0030     4.7700 ca         1 FO1      -0.041000
     11 C7          -4.1530     0.0030     4.7390 ca         1 FO1      -0.212000
     12 C9          -4.8350     0.0020     3.5210 ca         1 FO1       0.182100
     13 O10         -6.1910     0.0010     3.5100 oh         1 FO1      -0.504100
     14 C11         -4.1370     0.0020     2.3260 ca         1 FO1      -0.188000
     15 C12         -2.7480     0.0020     2.3330 ca         1 FO1       0.113700
     16 N3          -2.0560     0.0010     1.1390 na         1 FO1      -0.090100
     17 C13         -0.6940     0.0010     1.1310 cd         1 FO1       0.200700
     18 C14         -2.7920    -0.0010    -0.1280 c3         1 FO1       0.027300
     19 C15         -3.0490     1.4410    -0.5700 c3         1 FO1       0.122100
     20 O3          -3.8190     2.1160     0.4270 oh         1 FO1      -0.587800
     21 C16         -3.8170     1.4390    -1.8930 c3         1 FO1       0.140100
     22 O4          -3.0470     0.7660    -2.8900 oh         1 FO1      -0.590800
     23 C17         -4.0730     2.8810    -2.3360 c3         1 FO1       0.140100
     24 O5          -4.8440     3.5560    -1.3390 oh         1 FO1      -0.595800
     25 C18         -4.8420     2.8800    -3.6590 c3         1 FO1       0.106400
     26 O6          -4.9800     4.2220    -4.1310 oh         1 FO1      -0.615800
     27 HN3          3.0760    -0.0000     1.0320 hn         1 FO1       0.350500
     28 HC6         -2.2700     0.0040     5.7200 ha         1 FO1       0.147000
     29 HC82        -6.5080    -0.7760     3.9390 ho         1 FO1       0.430000
     30 HC9         -4.6750     0.0010     1.3850 ha         1 FO1       0.173000
     31 HC11        -2.2080    -0.5120    -0.8830 h1         1 FO1       0.089700
     32 HC12        -3.7380    -0.5120     0.0050 h1         1 FO1       0.089700
     33 HC2'        -2.1030     1.9520    -0.7030 h1         1 FO1       0.071700
     34 HO2'        -3.3630     2.8930     0.7030 ho         1 FO1       0.414000
     35 HC3'        -4.7630     0.9280    -1.7610 h1         1 FO1       0.051700
     36 HO3'        -3.5580     0.0680    -3.2650 ho         1 FO1       0.408000
     37 HC4'        -3.1270     3.3920    -2.4680 h1         1 FO1       0.057700
     38 HO4'        -4.8440     4.4820    -1.5150 ho         1 FO1       0.417000
     39 HC51        -5.8240     2.4480    -3.5060 h1         1 FO1       0.033200
     40 HC52        -4.3000     2.2940    -4.3910 h1         1 FO1       0.033200
     41 HO5'        -5.4100     4.2170    -4.9710 ho         1 FO1       0.409000
     42 H21         -0.1280    -0.2030     4.5230 ha         1 FO1       0.169000
     43 HC7         -4.7110     0.0180     5.6680 ha         1 FO1       0.147000
@<TRIPOS>BOND
     1     1     2 1
     2     1    17 2
     3     2     3 2
     4     2     4 1
     5     4     5 1
     6     4    27 1
     7     5     6 2
     8     5     7 1
     9     7     8 2
    10     7    17 1
    11     8     9 1
    12     8    42 1
    13     9    10 ar
    14     9    15 ar
    15    10    11 ar
    16    10    28 1
    17    11    12 ar
    18    11    43 1
    19    12    13 1
    20    12    14 ar
    21    13    29 1
    22    14    15 ar
    23    14    30 1
    24    15    16 1
    25    16    17 1
    26    16    18 1
    27    18    19 1
    28    18    31 1
    29    18    32 1
    30    19    20 1
    31    19    21 1
    32    19    33 1
    33    20    34 1
    34    21    22 1
    35    21    23 1
    36    21    35 1
    37    22    36 1
    38    23    24 1
    39    23    25 1
    40    23    37 1
    41    24    38 1
    42    25    26 1
    43    25    39 1
    44    25    40 1
    45    26    41 1
@<TRIPOS>SUBSTRUCTURE
     1 FO1         1 TEMP              0 ****  ****    0 ROOT
