@<TRIPOS>MOLECULE
FO5
   35    37     1     0     0
SMALL
bcc


@<TRIPOS>ATOM
      1 C           0.0380    0.2400   -0.0560 c         1 FO5      0.657100
      2 N           0.9280    0.8490    3.2490 n1        1 FO5     -0.339800
      3 O           1.2560    0.4780   -0.1380 o         1 FO5     -0.571100
      4 S          -4.5480    2.9090   -8.2090 ss        1 FO5      0.119200
      5 C1         -0.6960    0.3430    1.2750 c3        1 FO5     -0.087300
      6 N1         -0.6720   -0.2080   -1.1710 n         1 FO5     -0.460800
      7 O1         -2.4360    3.2800   -3.8380 os        1 FO5     -0.143100
      8 C2          0.2100    0.6240    2.3640 c1        1 FO5      0.215700
      9 N2         -2.9340    4.1250   -4.7120 nc        1 FO5     -0.362300
     10 C3         -0.0280   -0.1860   -2.4720 c3        1 FO5      0.081500
     11 N3         -3.1680    1.9940   -5.5380 nd        1 FO5     -0.687000
     12 C4         -0.5530    0.9040   -3.4080 c3        1 FO5     -0.106400
     13 C5         -2.0720    0.8360   -3.5100 c3        1 FO5     -0.089000
     14 C6         -2.7050    0.8850   -2.1240 c3        1 FO5     -0.106400
     15 C7         -2.1150   -0.2100   -1.2310 c3        1 FO5      0.081500
     16 C8         -2.5800    1.9540   -4.3470 cc        1 FO5      0.506700
     17 C9         -3.3910    3.3910   -5.7650 cd        1 FO5      0.625500
     18 C10        -4.0160    3.8940   -6.9570 cd        1 FO5     -0.194600
     19 C11        -4.2600    5.2350   -7.2300 cc        1 FO5     -0.108000
     20 C12        -4.8920    5.3990   -8.4950 cc        1 FO5     -0.165000
     21 C13        -5.0980    4.1810   -9.1190 cd        1 FO5     -0.180100
     22 H1         -1.2330   -0.6230    1.4920 hc        1 FO5      0.095200
     23 H1A        -1.4570    1.1710    1.2120 hc        1 FO5      0.095200
     24 H3         -0.2090   -1.1940   -2.9470 h1        1 FO5      0.065450
     25 H3A         1.0830   -0.0510   -2.3390 h1        1 FO5      0.065450
     26 H4         -0.0940    0.7550   -4.4190 hc        1 FO5      0.068200
     27 H4A        -0.2460    1.9170   -3.0360 hc        1 FO5      0.068200
     28 H5         -2.3600   -0.1360   -4.0070 hc        1 FO5      0.087700
     29 H6         -3.8110    0.7250   -2.2020 hc        1 FO5      0.068200
     30 H6A        -2.5350    1.8960   -1.6690 hc        1 FO5      0.068200
     31 H7         -2.5620   -0.1130   -0.2050 h1        1 FO5      0.065450
     32 H7A        -2.4270   -1.2140   -1.6450 h1        1 FO5      0.065450
     33 H11        -4.0030    6.0660   -6.5670 ha        1 FO5      0.169000
     34 H12        -5.1720    6.3710   -8.9050 ha        1 FO5      0.158000
     35 H13        -5.5640    4.0530  -10.0950 h4        1 FO5      0.175000
@<TRIPOS>BOND
     1    1    3 2
     2    1    5 1
     3    1    6 1
     4    2    8 3
     5    4   18 1
     6    4   21 1
     7    5    8 1
     8    5   22 1
     9    5   23 1
    10    6   10 1
    11    6   15 1
    12    7    9 1
    13    7   16 1
    14    9   17 2
    15   10   12 1
    16   10   24 1
    17   10   25 1
    18   11   16 2
    19   11   17 1
    20   12   13 1
    21   12   26 1
    22   12   27 1
    23   13   14 1
    24   13   16 1
    25   13   28 1
    26   14   15 1
    27   14   29 1
    28   14   30 1
    29   15   31 1
    30   15   32 1
    31   17   18 1
    32   18   19 2
    33   19   20 1
    34   19   33 1
    35   20   21 2
    36   20   34 1
    37   21   35 1
@<TRIPOS>SUBSTRUCTURE
     1 FO5         1 TEMP              0 ****  ****    0 ROOT
