@<TRIPOS>MOLECULE
molecule
   33    34     1     0     0
SMALL
bcc


@<TRIPOS>ATOM
      1 Br1          0.0000     0.0000     0.0000 br         1 FO7      -0.056100
      2 C3           1.8910     0.0000     0.0000 ca         1 FO7      -0.054900
      3 C2           2.5820     0.0000     1.1960 ca         1 FO7       0.079700
      4 C14          1.8290     0.0010     2.5010 c3         1 FO7       0.142700
      5 O4           1.6020    -1.3460     2.9220 oh         1 FO7      -0.571800
      6 C4           2.5860    -0.0070    -1.2020 ca         1 FO7       0.211100
      7 O3           1.9080    -0.0110    -2.3800 os         1 FO7      -0.223200
      8 C11          2.6260    -0.1280    -3.5280 ca         1 FO7       0.125100
      9 C10          3.1430    -1.3590    -3.9040 ca         1 FO7      -0.155000
     10 C9           3.8730    -1.4750    -5.0720 ca         1 FO7       0.060400
     11 Cl1          4.5190    -3.0170    -5.5420 cl         1 FO7      -0.079400
     12 C12          2.8390     0.9860    -4.3300 ca         1 FO7      -0.173000
     13 C13          3.5700     0.8660    -5.4980 ca         1 FO7       0.156900
     14 F3           3.7780     1.9490    -6.2780 f          1 FO7      -0.125900
     15 C8           4.0890    -0.3640    -5.8670 ca         1 FO7      -0.163000
     16 C5           3.9740    -0.0080    -1.1980 ca         1 FO7      -0.226000
     17 C6           4.6590    -0.0030     0.0020 ca         1 FO7       0.025000
     18 C1           3.9650    -0.0020     1.1970 ca         1 FO7      -0.307500
     19 S1           4.8440    -0.0020     2.7240 sy         1 FO7       1.156300
     20 O1           4.1150    -0.9020     3.5480 o          1 FO7      -0.567800
     21 O2           6.1890    -0.2720     2.3540 o          1 FO7      -0.567800
     22 C7           4.6820     1.6970     3.3390 c3         1 FO7       0.291700
     23 F1           5.1340     2.5920     2.3630 f          1 FO7      -0.206800
     24 F2           3.3400     1.9620     3.6290 f          1 FO7      -0.206800
     25 H1           0.8790     0.5030     2.3690 h1         1 FO7       0.051200
     26 H2           2.4110     0.5200     3.2530 h1         1 FO7       0.051200
     27 H3           0.9350    -1.3580     3.5890 ho         1 FO7       0.409000
     28 H4           2.9340    -2.2390    -3.3070 ha         1 FO7       0.167000
     29 H5           2.3890     1.9360    -4.0680 ha         1 FO7       0.167000
     30 H6           4.6610    -0.4560    -6.7820 ha         1 FO7       0.165000
     31 H7           4.5190    -0.0110    -2.1350 ha         1 FO7       0.158000
     32 H8           5.7420    -0.0040     0.0050 ha         1 FO7       0.166000
     33 H11          5.2760     1.8140     4.2380 h3         1 FO7       0.102700
@<TRIPOS>BOND
     1     1     2 1
     2     2     3 ar
     3     2     6 ar
     4     3     4 1
     5     3    18 ar
     6     4     5 1
     7     6     7 1
     8     6    16 ar
     9     7     8 1
    10     8     9 ar
    11     8    12 ar
    12     9    10 ar
    13    10    11 1
    14    10    15 ar
    15    12    13 ar
    16    13    14 1
    17    13    15 ar
    18    16    17 ar
    19    17    18 ar
    20    18    19 1
    21    19    20 2
    22    19    21 2
    23    19    22 1
    24    22    23 1
    25    22    24 1
    26     4    25 1
    27     4    26 1
    28     5    27 1
    29     9    28 1
    30    12    29 1
    31    15    30 1
    32    16    31 1
    33    17    32 1
    34    22    33 1
@<TRIPOS>SUBSTRUCTURE
     1 FO7         1 TEMP              0 ****  ****    0 ROOT
