@<TRIPOS>MOLECULE
FO9
   41    41     1     0     0
SMALL
bcc


@<TRIPOS>ATOM
      1 C1           0.0000     0.0000     0.0000 c3         1 FO9      -0.054700
      2 C2           1.5290     0.0000     0.0000 c3         1 FO9       0.094700
      3 N2           1.9380     0.3570    -5.2830 nz         1 FO9       0.273400
      4 O1          -0.8610    -1.2490     4.1630 o          1 FO9      -0.494300
      5 S2          -0.2130     0.0010     3.9660 sy         1 FO9       1.100300
      6 O           -0.8600     1.2510     4.1620 o          1 FO9      -0.494300
      7 N6           1.1150     0.0010     4.9540 nz         1 FO9      -0.054500
      8 N5           0.3390     0.0010     2.4040 ne         1 FO9      -0.579300
      9 C           -0.5020     0.0000     1.4210 c2         1 FO9       0.491200
     10 N           -1.8490     0.0000     1.6720 nz         1 FO9       0.022400
     11 S            2.1340    -0.0010    -1.7110 ss         1 FO9      -0.380200
     12 C3           3.9360    -0.0000    -1.5070 c3         1 FO9       0.091400
     13 C4           4.5960    -0.0010    -2.8620 c2         1 FO9       0.405300
     14 N4           3.9690    -0.0000    -3.9930 ne         1 FO9      -0.501300
     15 C6           4.5930     0.0000    -5.1510 ce         1 FO9      -0.176800
     16 S1           6.1440    -0.0020    -4.9370 s4         1 FO9      -0.179300
     17 C5           6.0970     0.0060    -3.1060 c3         1 FO9       0.341600
     18 N1           3.9880    -0.0000    -6.3420 ne         1 FO9      -0.210300
     19 C7           2.6700     0.0980    -6.4150 c2         1 FO9      -0.366900
     20 N3           2.0360    -0.0590    -7.6220 nz         1 FO9       0.273400
     21 H1          -0.3610    -0.8850    -0.5110 hc         1 FO9       0.085700
     22 H2          -0.3610     0.8850    -0.5110 hc         1 FO9       0.085700
     23 H3           1.8910     0.8850     0.5100 h1         1 FO9       0.059700
     24 H4           1.8910    -0.8840     0.5110 h1         1 FO9       0.059700
     25 H5           0.9900     0.5510    -5.5360 hn         1 FO9       0.210300
     26 H6           1.6650     0.8180     4.7750 hn         1 FO9       0.335800
     27 H7           0.8200     0.0010     5.9110 hn         1 FO9       0.335800
     28 H9          -2.0910    -0.8170     2.1980 hn         1 FO9       0.281467
     29 H10          4.2380     0.8840    -0.9590 h1         1 FO9       0.075200
     30 H11          4.2380    -0.8840    -0.9590 h1         1 FO9       0.075200
     31 H13          6.5600    -0.8870    -2.7020 h1         1 FO9       0.106200
     32 H15          1.3840    -0.8160    -7.5600 hn         1 FO9       0.210300
     33 H16          2.7130    -0.2590    -8.3310 hn         1 FO9       0.210300
     34 H17          1.9650    -0.4400    -4.6780 hn         1 FO9       0.210300
     35 H8          -2.3500     0.0000     0.8060 hn         1 FO9       0.281467
     36 H12          7.1550    -0.0010    -5.7960 hs         1 FO9       0.631000
     37 H18          6.5510     0.9050    -2.7090 h1         1 FO9       0.106200
     38 H23          2.3160     1.1580    -4.8160 hn         1 FO9       0.210300
     39 H63          1.6710    -0.8100     4.7660 hn         1 FO9       0.335800
     40 HN3         -2.0860     0.8040     2.2190 hn         1 FO9       0.281467
     41 H33          1.5570     0.7870    -7.8590 hn         1 FO9       0.210300
@<TRIPOS>BOND
     1     1     2 1   
     2     1     9 1   
     3     1    21 1   
     4     1    22 1   
     5     2    11 1   
     6     2    23 1   
     7     2    24 1   
     8     3    19 1   
     9     3    25 1   
    10     3    34 1   
    11     3    38 1   
    12     4     5 2   
    13     5     6 2   
    14     5     7 1   
    15     5     8 1   
    16     7    26 1   
    17     7    27 1   
    18     7    39 1   
    19     8     9 2   
    20     9    10 1   
    21    10    28 1   
    22    10    35 1   
    23    10    40 1   
    24    11    12 1   
    25    12    13 1   
    26    12    29 1   
    27    12    30 1   
    28    13    14 2   
    29    13    17 1   
    30    14    15 1   
    31    15    16 2   
    32    15    18 1   
    33    16    17 1   
    34    16    36 1   
    35    17    31 1   
    36    17    37 1   
    37    18    19 2   
    38    19    20 1   
    39    20    32 1   
    40    20    33 1   
    41    20    41 1   
@<TRIPOS>SUBSTRUCTURE
     1 FO9         1 TEMP              0 ****  ****    0 ROOT
