@<TRIPOS>MOLECULE
molecule
   41    41     1     0     0
SMALL
bcc


@<TRIPOS>ATOM
      1 C1           0.0000     0.0000     0.0000 c3         1 FO9      -0.128700
      2 C2           1.5290     0.0000     0.0000 c3         1 FO9       0.024700
      3 N2           1.9380     0.3570    -5.2830 nz         1 FO9      -0.689600
      4 O1          -0.8610    -1.2490     4.1630 o          1 FO9      -0.503800
      5 S2          -0.2130     0.0010     3.9660 sy         1 FO9       1.391300
      6 O           -0.8600     1.2510     4.1620 o          1 FO9      -0.503800
      7 N6           1.1150     0.0010     4.9540 nz         1 FO9      -0.794500
      8 N5           0.3390     0.0010     2.4040 ne         1 FO9      -0.749300
      9 C           -0.5020     0.0000     1.4210 c2         1 FO9       0.724200
     10 N           -1.8490     0.0000     1.6720 nz         1 FO9      -0.858600
     11 S            2.1340    -0.0010    -1.7110 ss         1 FO9      -0.331200
     12 C3           3.9360    -0.0000    -1.5070 c3         1 FO9       0.011400
     13 C4           4.5960    -0.0010    -2.8620 c2         1 FO9       0.456300
     14 N4           3.9690    -0.0000    -3.9930 ne         1 FO9      -0.635300
     15 C6           4.5930     0.0000    -5.1510 ce         1 FO9      -0.085800
     16 S1           6.1440    -0.0020    -4.9370 s4         1 FO9      -0.252300
     17 C5           6.0970     0.0060    -3.1060 c3         1 FO9       0.254600
     18 N1           3.9880    -0.0000    -6.3420 ne         1 FO9      -0.371300
     19 C7           2.6700     0.0980    -6.4150 c2         1 FO9       0.175100
     20 N3           2.0360    -0.0590    -7.6220 nz         1 FO9      -0.689600
     21 H1          -0.3610     0.8850    -0.5110 hc         1 FO9       0.129200
     22 H2          -0.3610    -0.8850    -0.5110 hc         1 FO9       0.129200
     23 H3           1.8910     0.8850     0.5100 h1         1 FO9       0.093700
     24 H4           1.8910    -0.8840     0.5110 h1         1 FO9       0.093700
     25 H5           2.3340     1.1390    -4.8000 hn         1 FO9       0.468467
     26 H6           0.8200    -0.0180     5.9100 hn         1 FO9       0.522133
     27 H7           1.6740    -0.8070     4.7620 hn         1 FO9       0.522133
     28 H9          -2.3500    -0.0060     0.8060 hn         1 FO9       0.510800
     29 H10          4.2380    -0.8850    -0.9590 h1         1 FO9       0.115700
     30 H11          4.2380     0.8840    -0.9590 h1         1 FO9       0.115700
     31 H13          6.5510     0.9050    -2.7090 h1         1 FO9       0.156200
     32 H15          2.3730    -0.8870    -8.0710 hn         1 FO9       0.468467
     33 H16          2.2220     0.7350    -8.2020 hn         1 FO9       0.468467
     34 H17          0.9930     0.5680    -5.5370 hn         1 FO9       0.468467
     35 H8          -2.0910     0.8210     2.1920 hn         1 FO9       0.510800
     36 H12          7.1550    -0.0010    -5.7960 hs         1 FO9       0.656000
     37 H18          6.5600    -0.8870    -2.7020 h1         1 FO9       0.156200
     38 H23          1.9400    -0.4510    -4.6920 hn         1 FO9       0.468467
     39 H63          1.6620     0.8210     4.7790 hn         1 FO9       0.522133
     40 HN3         -2.0860    -0.8000     2.2250 hn         1 FO9       0.510800
     41 H33          1.0510    -0.1490    -7.4730 hn         1 FO9       0.468467
@<TRIPOS>BOND
     1     1     2 1
     2     1     9 1
     3     2    11 1
     4     3    19 1
     5     4     5 2
     6     5     6 2
     7     5     7 1
     8     5     8 1
     9     8     9 2
    10     9    10 1
    11    11    12 1
    12    12    13 1
    13    13    14 2
    14    13    17 1
    15    14    15 1
    16    15    16 2
    17    16    17 1
    18    18    19 2
    19    19    20 1
    20    15    18 1
    21     1    21 1
    22     1    22 1
    23     2    23 1
    24     2    24 1
    25     3    25 1
    26     7    26 1
    27     7    27 1
    28    10    28 1
    29    12    29 1
    30    12    30 1
    31    17    31 1
    32    20    32 1
    33    20    33 1
    34     3    34 1
    35    10    35 1
    36    16    36 1
    37    17    37 1
    38    38     3 1
    39    39     7 1
    40    40    10 1
    41    41    20 1
@<TRIPOS>SUBSTRUCTURE
     1 FO9         1 TEMP              0 ****  ****    0 ROOT
