@<TRIPOS>MOLECULE
FOA
   11    11     1     0     0
SMALL
bcc


@<TRIPOS>ATOM
      1 C1         -0.0540    0.0180   -0.0630 c         1 FOA      0.827100
      2 C2          1.4560    0.0180    0.0700 cc        1 FOA      0.246200
      3 C3          2.2980    0.0380    1.1740 cd        1 FOA     -0.306300
      4 C4          3.6510    0.0260    0.6730 cd        1 FOA     -0.282300
      5 C5          3.5580   -0.0010   -0.7050 cc        1 FOA      0.169600
      6 O6         -0.7030    0.0430    1.0190 o         1 FOA     -0.809800
      7 O7         -0.5590   -0.0060   -1.2140 o         1 FOA     -0.809800
      8 O8          2.2210   -0.0060   -1.0960 os        1 FOA     -0.336800
      9 H3          1.9900    0.0590    2.2140 ha        1 FOA      0.154000
     10 H4          4.5530    0.0360    1.2750 ha        1 FOA      0.127000
     11 H5          4.2680   -0.0180   -1.5210 h4        1 FOA      0.021100
@<TRIPOS>BOND
     1    1    2 1
     2    1    6 1
     3    1    7 1
     4    2    3 2
     5    2    8 1
     6    3    4 1
     7    3    9 1
     8    4    5 2
     9    4   10 1
    10    5    8 1
    11    5   11 1
@<TRIPOS>SUBSTRUCTURE
     1 FOA         1 TEMP              0 ****  ****    0 ROOT
