@<TRIPOS>MOLECULE
molecule
   31    31     1     0     0
SMALL
bcc


@<TRIPOS>ATOM
      1 CH3          0.0000     0.0000     0.0000 c3         1 FOB      -0.169100
      2 O2           1.4730    -0.0010    -2.3930 oh         1 FOB      -0.430100
      3 N1           2.1810    -0.0000    -1.1670 n          1 FOB      -0.363300
      4 C1           1.5070     0.0000     0.0000 c          1 FOB       0.651100
      5 O1           2.1130     0.0000     1.0510 o          1 FOB      -0.544100
      6 C2           3.6460    -0.0020    -1.1670 c3         1 FOB       0.087000
      7 C3           4.1560    -1.3950    -0.7920 c3         1 FOB      -0.055400
      8 C4           5.6790    -1.4330    -0.9250 c3         1 FOB      -0.173600
      9 PA1          6.4250    -0.3270     0.3160 p5         1 FOB       1.012700
     10 OP1          8.0300    -0.4240     0.2260 o          1 FOB      -0.889167
     11 OP2          6.0000     1.0660     0.0540 o          1 FOB      -0.889167
     12 OP3          5.9430    -0.7680     1.7880 o          1 FOB      -0.889167
     13 CG           6.1670    -2.8410    -0.7010 ca         1 FOB       0.060700
     14 CD1          7.1150    -3.4070    -1.5410 ca         1 FOB      -0.237300
     15 CD2          5.6840    -3.6010     0.3540 ca         1 FOB      -0.237300
     16 CE1          7.5390    -4.7010    -1.3040 ca         1 FOB       0.379200
     17 CE2          6.1550    -4.8880     0.5280 ca         1 FOB       0.379200
     18 NZ           7.0520    -5.3950    -0.2950 nb         1 FOB      -0.763000
     19 H1          -0.3610    -0.8710    -0.5330 hc         1 FOB       0.041367
     20 H2          -0.3610     0.8970    -0.4880 hc         1 FOB       0.041367
     21 H3          -0.3610    -0.0260     1.0210 hc         1 FOB       0.041367
     22 H4           1.5950     0.8270    -2.8270 ho         1 FOB       0.381000
     23 H5           4.0080     0.2610    -2.1530 h1         1 FOB       0.100700
     24 H6           4.0080     0.7200    -0.4450 h1         1 FOB       0.100700
     25 H7           3.7170    -2.1310    -1.4560 hc         1 FOB       0.032700
     26 H8           3.8770    -1.6190     0.2300 hc         1 FOB       0.032700
     27 H9           5.9640    -1.1060    -1.9180 hc         1 FOB       0.041700
     28 H12          7.5190    -2.8410    -2.3720 ha         1 FOB       0.146500
     29 H13          4.9470    -3.1890     1.0340 ha         1 FOB       0.146500
     30 H14          8.2760    -5.1510    -1.9570 h4         1 FOB      -0.018900
     31 H15          5.7810    -5.4890     1.3480 h4         1 FOB      -0.018900
@<TRIPOS>BOND
     1    11     9 1
     2    12     9 1
     3     9    10 1
     4     9     8 1
     5     7     8 1
     6     7     6 1
     7     8    13 1
     8     2     3 1
     9     6     3 1
    10     3     4 1
    11    13    14 ar
    12    13    15 ar
    13    14    16 ar
    14    15    17 ar
    15     4     5 2
    16     4     1 1
    17    16    18 ar
    18    17    18 ar
    19     1    19 1
    20     1    20 1
    21     1    21 1
    22     2    22 1
    23     6    23 1
    24     6    24 1
    25     7    25 1
    26     7    26 1
    27     8    27 1
    28    14    28 1
    29    15    29 1
    30    16    30 1
    31    17    31 1
@<TRIPOS>SUBSTRUCTURE
     1 FOB         1 TEMP              0 ****  ****    0 ROOT
