@<TRIPOS>MOLECULE
molecule
   25    24     1     0     0
SMALL
bcc


@<TRIPOS>ATOM
      1 C1           0.0000     0.0000     0.0000 c3         1 FOC       0.113400
      2 O1          -0.4770     1.1650     0.6740 oh         1 FOC      -0.612800
      3 C2           1.5290     0.0000     0.0000 c3         1 FOC       0.137100
      4 O2           2.0060     0.0000     1.3470 oh         1 FOC      -0.592800
      5 C3           2.0410    -1.2480    -0.7220 c3         1 FOC       0.144100
      6 O3           1.5650    -2.4150    -0.0490 oh         1 FOC      -0.592800
      7 C4           3.5700    -1.2460    -0.7220 c3         1 FOC       0.150100
      8 O4           4.0450    -0.0800    -1.3950 oh         1 FOC      -0.593800
      9 C5           4.0820    -2.4940    -1.4440 c3         1 FOC       0.129100
     10 O5           3.6050    -2.4940    -2.7900 oh         1 FOC      -0.600800
     11 C6           5.6100    -2.4940    -1.4440 c3         1 FOC      -0.124100
     12 H11         -0.3610     0.0010    -1.0210 h1         1 FOC       0.031700
     13 H12         -0.3610    -0.8850     0.5100 h1         1 FOC       0.031700
     14 HO1         -1.3980     1.2740     0.5010 ho         1 FOC       0.404000
     15 H2           1.8900     0.8850    -0.5100 h1         1 FOC       0.056700
     16 HO2          2.1300     0.8890     1.6370 ho         1 FOC       0.407000
     17 H3           1.6800    -1.2480    -1.7430 h1         1 FOC       0.065700
     18 HO3          0.9620    -2.8760    -0.6090 ho         1 FOC       0.400000
     19 H4           3.9320    -1.2470     0.2990 h1         1 FOC       0.067700
     20 HO4          4.6740     0.3640    -0.8490 ho         1 FOC       0.402000
     21 H5           3.7210    -3.3790    -0.9340 h1         1 FOC       0.046700
     22 HO5          3.6640    -3.3660    -3.1450 ho         1 FOC       0.398000
     23 H61          5.9720    -1.7740    -2.1690 hc         1 FOC       0.043367
     24 H62          5.9710    -2.2250    -0.4580 hc         1 FOC       0.043367
     25 H63          5.9720    -3.4810    -1.7040 hc         1 FOC       0.043367
@<TRIPOS>BOND
     1     1     2 1
     2     1     3 1
     3     1    12 1
     4     1    13 1
     5     2    14 1
     6     3     4 1
     7     3     5 1
     8     3    15 1
     9     4    16 1
    10     5     6 1
    11     5     7 1
    12     5    17 1
    13     6    18 1
    14     7     8 1
    15     7     9 1
    16     7    19 1
    17     8    20 1
    18     9    10 1
    19     9    11 1
    20     9    21 1
    21    10    22 1
    22    11    23 1
    23    11    24 1
    24    11    25 1
@<TRIPOS>SUBSTRUCTURE
     1 FOC         1 TEMP              0 ****  ****    0 ROOT
