@<TRIPOS>MOLECULE
FOC
   25    24     1     0     0
SMALL
bcc


@<TRIPOS>ATOM
      1 C1         -0.0220    0.1250    0.0050 c3        1 FOC      0.093400
      2 O1         -0.4050    1.1890    0.8640 oh        1 FOC     -0.616800
      3 C2          1.5080    0.0860    0.0250 c3        1 FOC      0.149100
      4 O2          1.9970   -0.1150    1.3410 oh        1 FOC     -0.601800
      5 C3          2.0190   -1.0560   -0.8690 c3        1 FOC      0.162100
      6 O3          1.3960   -2.2560   -0.4500 oh        1 FOC     -0.598800
      7 C4          3.5550   -1.1590   -0.7730 c3        1 FOC      0.116100
      8 O4          4.0530   -0.1030   -1.5810 oh        1 FOC     -0.591800
      9 C5          4.0690   -2.5350   -1.2330 c3        1 FOC      0.103100
     10 O5          3.3550   -2.8890   -2.4130 oh        1 FOC     -0.608800
     11 C6          5.5670   -2.5310   -1.4660 c3        1 FOC     -0.138100
     12 H11        -0.4340   -0.8510    0.3750 h1        1 FOC      0.045200
     13 H12        -0.3910    0.3230   -1.0350 h1        1 FOC      0.045200
     14 HO1        -1.3560    1.1120    0.9940 ho        1 FOC      0.408000
     15 H2          1.9260    1.0540   -0.3730 h1        1 FOC      0.060700
     16 HO2         1.5040    0.4890    1.9130 ho        1 FOC      0.420000
     17 H3          1.7420   -0.8270   -1.9370 h1        1 FOC      0.063700
     18 HO3         1.5640   -2.9120   -1.1410 ho        1 FOC      0.417000
     19 H4          3.8790   -1.0160    0.2970 h1        1 FOC      0.071700
     20 HO4         5.0000   -0.0460   -1.4110 ho        1 FOC      0.401000
     21 H5          3.8100   -3.2850   -0.4280 h1        1 FOC      0.050700
     22 HO5         3.8160   -3.6360   -2.8110 ho        1 FOC      0.405000
     23 H61         5.8190   -1.9140   -2.3620 hc        1 FOC      0.048033
     24 H62         5.9340   -3.5710   -1.6400 hc        1 FOC      0.048033
     25 H63         6.0920   -2.1120   -0.5740 hc        1 FOC      0.048033
@<TRIPOS>BOND
     1    1    2 1   
     2    1    3 1   
     3    1   12 1   
     4    1   13 1   
     5    2   14 1   
     6    3    4 1   
     7    3    5 1   
     8    3   15 1   
     9    4   16 1   
    10    5    6 1   
    11    5    7 1   
    12    5   17 1   
    13    6   18 1   
    14    7    8 1   
    15    7    9 1   
    16    7   19 1   
    17    8   20 1   
    18    9   10 1   
    19    9   11 1   
    20    9   21 1   
    21   10   22 1   
    22   11   23 1   
    23   11   24 1   
    24   11   25 1   
@<TRIPOS>SUBSTRUCTURE
     1 FOC         1 TEMP              0 ****  ****    0 ROOT
