@<TRIPOS>MOLECULE
FOH
   42    41     1     0     0
SMALL
bcc


@<TRIPOS>ATOM
      1 C1          0.3920    1.0730    0.7980 c3        1 FOH     -0.057900
      2 C2          1.8130    0.6990    0.5970 c2        1 FOH     -0.123400
      3 C3          2.7460    1.0890    1.6810 c3        1 FOH     -0.057900
      4 C4          2.2240    0.0420   -0.5000 c2        1 FOH     -0.178200
      5 C5          3.6340   -0.3450   -0.7380 c3        1 FOH     -0.040200
      6 C6          3.7860   -1.2050   -1.9800 c3        1 FOH     -0.043200
      7 C7          5.2120   -1.5630   -2.2280 c2        1 FOH     -0.122400
      8 C8          5.9800   -0.5820   -3.0340 c3        1 FOH     -0.057900
      9 C9          5.7760   -2.6930   -1.7750 c2        1 FOH     -0.173200
     10 C10         5.0680   -3.7200   -0.9750 c3        1 FOH     -0.043200
     11 C11         6.0180   -4.7830   -0.4510 c3        1 FOH     -0.044200
     12 C12         5.2960   -5.8180    0.3420 c2        1 FOH     -0.120400
     13 C13         4.7560   -6.9560   -0.4420 c3        1 FOH     -0.057900
     14 C14         5.1400   -5.7500    1.6720 c2        1 FOH     -0.170200
     15 C15         5.6630   -4.6410    2.5130 c3        1 FOH      0.164600
     16 O1          5.2470   -4.8810    3.8510 oh        1 FOH     -0.599800
     17 H11        -0.2520    0.7160   -0.0420 hc        1 FOH      0.040367
     18 H21         0.0100    0.6280    1.7500 hc        1 FOH      0.040367
     19 H31         0.2950    2.1850    0.8690 hc        1 FOH      0.040367
     20 H13         3.1240    0.1770    2.2100 hc        1 FOH      0.040367
     21 H23         3.6290    1.6330    1.2600 hc        1 FOH      0.040367
     22 H33         2.2460    1.7490    2.4300 hc        1 FOH      0.040367
     23 H4          1.5040   -0.2380   -1.2870 ha        1 FOH      0.122000
     24 H15         4.2630    0.5810   -0.8450 hc        1 FOH      0.048700
     25 H25         4.0290   -0.9040    0.1540 hc        1 FOH      0.048700
     26 H16         3.3820   -0.6490   -2.8690 hc        1 FOH      0.047200
     27 H26         3.1690   -2.1370   -1.8640 hc        1 FOH      0.047200
     28 H18         5.5710   -0.5380   -4.0740 hc        1 FOH      0.040700
     29 H28         5.8920    0.4380   -2.5820 hc        1 FOH      0.040700
     30 H38         7.0620   -0.8510   -3.0920 hc        1 FOH      0.040700
     31 H9          6.8350   -2.9080   -1.9980 ha        1 FOH      0.121000
     32 H101        4.2770   -4.2090   -1.6090 hc        1 FOH      0.052200
     33 H102        4.5390   -3.2340   -0.1100 hc        1 FOH      0.052200
     34 H111        6.5400   -5.2740   -1.3160 hc        1 FOH      0.045700
     35 H112        6.8100   -4.2950    0.1790 hc        1 FOH      0.045700
     36 H133        4.1390   -7.6380    0.1920 hc        1 FOH      0.042367
     37 H132        4.1200   -6.5770   -1.2800 hc        1 FOH      0.042367
     38 H131        5.5970   -7.5490   -0.8830 hc        1 FOH      0.042367
     39 H14         4.6010   -6.5370    2.2280 ha        1 FOH      0.145000
     40 H151        5.2600   -3.6510    2.1600 h1        1 FOH      0.030200
     41 H152        6.7880   -4.6070    2.4680 h1        1 FOH      0.030200
     42 HO1         5.5890   -4.1500    4.3770 ho        1 FOH      0.399000
@<TRIPOS>BOND
     1    1    2 1   
     2    1   17 1   
     3    1   18 1   
     4    1   19 1   
     5    2    3 1   
     6    2    4 2   
     7    3   20 1   
     8    3   21 1   
     9    3   22 1   
    10    4    5 1   
    11    4   23 1   
    12    5    6 1   
    13    5   24 1   
    14    5   25 1   
    15    6    7 1   
    16    6   26 1   
    17    6   27 1   
    18    7    8 1   
    19    7    9 2   
    20    8   28 1   
    21    8   29 1   
    22    8   30 1   
    23    9   10 1   
    24    9   31 1   
    25   10   11 1   
    26   10   32 1   
    27   10   33 1   
    28   11   12 1   
    29   11   34 1   
    30   11   35 1   
    31   12   13 1   
    32   12   14 2   
    33   13   36 1   
    34   13   37 1   
    35   13   38 1   
    36   14   15 1   
    37   14   39 1   
    38   15   16 1   
    39   15   40 1   
    40   15   41 1   
    41   16   42 1   
@<TRIPOS>SUBSTRUCTURE
     1 FOH         1 TEMP              0 ****  ****    0 ROOT
