@<TRIPOS>MOLECULE
molecule
   42    41     1     0     0
SMALL
bcc


@<TRIPOS>ATOM
      1 C1           0.0000     0.0000     0.0000 c3         1 FOH      -0.053400
      2 C2           1.5070     0.0000     0.0000 c2         1 FOH      -0.125400
      3 C3           2.2610     0.0000     1.3040 c3         1 FOH      -0.053400
      4 C4           2.1620     0.0010    -1.1340 c2         1 FOH      -0.194200
      5 C5           3.6620    -0.1310    -1.1380 c3         1 FOH      -0.041200
      6 C6           4.0710    -1.2970    -2.0380 c3         1 FOH      -0.113200
      7 C7           5.5730    -1.4280    -2.0420 c2         1 FOH       0.036600
      8 C8           6.3980    -0.6030    -2.9960 c3         1 FOH      -0.055900
      9 C9           6.1590    -2.2570    -1.2170 c2         1 FOH      -0.504200
     10 C10          5.3510    -2.9690    -0.1630 c3         1 FOH      -0.093200
     11 C11          5.5040    -4.4810    -0.3360 c3         1 FOH      -0.147200
     12 C12          4.6970    -5.1920     0.7170 c2         1 FOH       0.053600
     13 C13          3.2310    -5.4640     0.4880 c3         1 FOH      -0.058900
     14 C14          5.2670    -5.5750     1.8330 c2         1 FOH      -0.472200
     15 C15          6.6830    -5.1610     2.1340 c3         1 FOH       0.139600
     16 O1           6.7780    -4.7520     3.5000 oh         1 FOH      -0.560800
     17 H11         -0.3610    -0.7250     0.7200 hc         1 FOH       0.042533
     18 H21         -0.3610    -0.2610    -0.9870 hc         1 FOH       0.042533
     19 H31         -0.3610     0.9860     0.2680 hc         1 FOH       0.042533
     20 H13          3.0420     0.7490     1.2700 hc         1 FOH       0.042533
     21 H23          2.7030    -0.9760     1.4660 hc         1 FOH       0.042533
     22 H33          1.5790     0.2260     2.1150 hc         1 FOH       0.042533
     23 H4           1.6180     0.0010    -2.0710 ha         1 FOH       0.124000
     24 H15          4.1040     0.7850    -1.5110 hc         1 FOH       0.055200
     25 H25          4.0110    -0.3150    -0.1290 hc         1 FOH       0.055200
     26 H16          3.7220    -1.1120    -3.0470 hc         1 FOH       0.052700
     27 H26          3.6290    -2.2130    -1.6660 hc         1 FOH       0.052700
     28 H18          7.2690    -1.1700    -3.3030 hc         1 FOH       0.053367
     29 H28          6.7150     0.3080    -2.5050 hc         1 FOH       0.053367
     30 H38          5.8030    -0.3560    -3.8680 hc         1 FOH       0.053367
     31 H9           5.6130    -3.1660    -1.4420 ha         1 FOH       0.325000
     32 H101         5.7050    -2.6810     0.8190 hc         1 FOH       0.070700
     33 H102         4.3070    -2.6980    -0.2640 hc         1 FOH       0.070700
     34 H111         6.5480    -4.7520    -0.2360 hc         1 FOH       0.061200
     35 H112         5.1490    -4.7700    -1.3180 hc         1 FOH       0.061200
     36 H133         2.9990    -6.4750     0.8010 hc         1 FOH       0.056033
     37 H132         3.0030    -5.3510    -0.5650 hc         1 FOH       0.056033
     38 H131         2.6400    -4.7630     1.0640 hc         1 FOH       0.056033
     39 H14          6.1080    -6.1320     1.4390 ha         1 FOH       0.300000
     40 H151         6.9640    -4.3370     1.4900 h1         1 FOH       0.017200
     41 H152         7.3490    -5.9980     1.9610 h1         1 FOH       0.017200
     42 HO1          7.5310    -5.1570     3.8980 ho         1 FOH       0.395000
@<TRIPOS>BOND
     1     1     2 1
     2     1    17 1
     3     1    18 1
     4     1    19 1
     5     2     3 1
     6     2     4 2
     7     3    20 1
     8     3    21 1
     9     3    22 1
    10     4     5 1
    11     4    23 1
    12     5     6 1
    13     5    24 1
    14     5    25 1
    15     6     7 1
    16     6    26 1
    17     6    27 1
    18     7     8 1
    19     7     9 2
    20     8    28 1
    21     8    29 1
    22     8    30 1
    23     9    10 1
    24     9    31 1
    25    10    11 1
    26    10    32 1
    27    10    33 1
    28    11    12 1
    29    11    34 1
    30    11    35 1
    31    12    13 1
    32    12    14 2
    33    13    36 1
    34    13    37 1
    35    13    38 1
    36    14    15 1
    37    14    39 1
    38    15    16 1
    39    15    40 1
    40    15    41 1
    41    16    42 1
@<TRIPOS>SUBSTRUCTURE
     1 FOH         1 TEMP              0 ****  ****    0 ROOT
