@<TRIPOS>MOLECULE
FOI
   41    44     1     0     0
SMALL
bcc


@<TRIPOS>ATOM
      1 C1          0.8170   -0.8010   -0.0990 ca        1 FOI      0.385200
      2 N2          2.1530   -0.7180    0.1220 nb        1 FOI     -0.622000
      3 C3          2.5960   -0.4100    1.3470 ca        1 FOI      0.430200
      4 C4          1.6730   -0.1750    2.3860 ca        1 FOI     -0.031200
      5 C5          0.2700   -0.2550    2.1540 ca        1 FOI     -0.128800
      6 C6         -0.1730   -0.5830    0.8710 ca        1 FOI     -0.195300
      7 C7         -0.3590    0.0470    3.4440 cc        1 FOI      0.133800
      8 C8          0.6890    0.2700    4.3380 cd        1 FOI     -0.054100
      9 O9          1.9440    0.1510    3.7060 os        1 FOI     -0.132200
     10 C10         0.7380    0.5650    5.7610 c         1 FOI      0.685300
     11 O11        -0.2050    0.9310    6.4770 o         1 FOI     -0.577000
     12 O12         1.9680    0.4080    6.3160 os        1 FOI     -0.389900
     13 C13         2.0750    0.6700    7.7210 c3        1 FOI      0.122700
     14 N14        -1.7260   -0.0460    3.6860 nh        1 FOI     -0.677000
     15 C15        -2.3950    1.0370    4.3910 c3        1 FOI      0.180900
     16 C16        -2.8170    2.1950    3.5290 c2        1 FOI     -0.095200
     17 C17        -3.9810    2.8600    3.6920 ce        1 FOI     -0.160200
     18 C18        -4.9280    2.4080    4.6610 cc        1 FOI      0.062200
     19 C19        -4.6370    1.1870    5.4380 cc        1 FOI     -0.145000
     20 C20        -3.4860    0.5020    5.2780 c2        1 FOI      0.060800
     21 C21        -5.7920    0.9550    6.3090 cc        1 FOI     -0.074000
     22 C22        -6.7130    1.9480    6.0980 cd        1 FOI     -0.147000
     23 C23        -6.1760    2.8590    5.0730 cd        1 FOI     -0.202400
     24 N24        -6.8720    4.0410    4.6250 n4        1 FOI     -0.362900
     25 O25        -7.6960    3.8530    3.5540 oh        1 FOI     -0.385300
     26 H1          0.5360   -1.0650   -1.1360 h4        1 FOI      0.041100
     27 H3          3.6870   -0.3550    1.5070 h4        1 FOI      0.058100
     28 H6         -1.2380   -0.6770    0.6260 ha        1 FOI      0.146000
     29 H13         1.4080   -0.0230    8.2880 h1        1 FOI      0.063367
     30 H13A        3.1550    0.4710    7.9330 h1        1 FOI      0.063367
     31 H13B        1.8010    1.7320    7.9300 h1        1 FOI      0.063367
     32 HN14       -2.2310   -0.3320    2.8680 hn        1 FOI      0.413800
     33 H16        -2.0860    2.5190    2.7680 ha        1 FOI      0.165000
     34 H17        -4.2240    3.7380    3.0740 ha        1 FOI      0.147000
     35 H20        -3.2690   -0.4300    5.8310 ha        1 FOI      0.188000
     36 H21        -5.8660    0.1180    7.0050 ha        1 FOI      0.181000
     37 H22        -7.6760    2.0780    6.5890 ha        1 FOI      0.168000
     38 HN24       -6.1870    4.7620    4.3210 hn        1 FOI      0.479300
     39 HO25       -7.9450    2.9030    3.4980 ho        1 FOI      0.483000
     40 H15        -1.6490    1.4930    5.1470 h1        1 FOI      0.178700
     41 H242       -7.4470    4.4130    5.4070 hn        1 FOI      0.479300
@<TRIPOS>BOND
     1    1    2 ar  
     2    1    6 ar  
     3    1   26 1   
     4    2    3 ar  
     5    3    4 ar  
     6    3   27 1   
     7    4    5 ar  
     8    4    9 1   
     9    5    6 ar  
    10    5    7 1   
    11    6   28 1   
    12    7    8 2   
    13    7   14 1   
    14    8    9 1   
    15    8   10 1   
    16   10   11 2   
    17   10   12 1   
    18   12   13 1   
    19   13   29 1   
    20   13   30 1   
    21   13   31 1   
    22   14   15 1   
    23   14   32 1   
    24   15   16 1   
    25   15   20 1   
    26   15   40 1   
    27   16   17 2   
    28   16   33 1   
    29   17   18 1   
    30   17   34 1   
    31   18   19 1   
    32   18   23 2   
    33   19   20 2   
    34   19   21 1   
    35   20   35 1   
    36   21   22 2   
    37   21   36 1   
    38   22   23 1   
    39   22   37 1   
    40   23   24 1   
    41   24   25 1   
    42   24   38 1   
    43   24   41 1   
    44   25   39 1   
@<TRIPOS>SUBSTRUCTURE
     1 FOI         1 TEMP              0 ****  ****    0 ROOT
