@<TRIPOS>MOLECULE
FOJ
   35    37     1     0     0
SMALL
bcc


@<TRIPOS>ATOM
      1 N1          -1.2880    -0.0200    -2.2210 n1         1 FOJ      -0.343800
      2 C16         -0.7190    -0.0000    -1.2390 cg         1 FOJ       0.210800
      3 C11          0.0000     0.0000     0.0000 ca         1 FOJ       0.083000
      4 C12          1.3950     0.0000     0.0000 ca         1 FOJ      -0.118000
      5 C13          2.0850     0.0000     1.2010 ca         1 FOJ       0.125100
      6 C14          1.3890    -0.0010     2.4020 ca         1 FOJ      -0.131000
      7 C15          0.0040    -0.0020     2.4060 ca         1 FOJ       0.130900
      8 F5          -0.6670    -0.0040     3.5780 f          1 FOJ      -0.114900
      9 C10         -0.6930     0.0040     1.2120 ca         1 FOJ      -0.112000
     10 O4           3.4440     0.0000     1.2040 os         1 FOJ      -0.217200
     11 C2           4.0820     1.1100     0.7490 ca         1 FOJ       0.222100
     12 C3           3.3500     2.2430     0.4230 ca         1 FOJ      -0.224000
     13 C4           4.0150     3.3610    -0.0410 ca         1 FOJ       0.109000
     14 C8           5.3890     3.3500    -0.1740 ca         1 FOJ      -0.167500
     15 S1           6.5060     4.6070    -0.7460 sy         1 FOJ       0.866300
     16 O1           6.6870     5.4840     0.3570 o          1 FOJ      -0.535300
     17 O2           5.9690     5.0570    -1.9830 o          1 FOJ      -0.535300
     18 C5           7.9630     3.5220    -1.0000 c3         1 FOJ       0.395400
     19 F2           8.0320     3.0680    -2.3210 f          1 FOJ      -0.173300
     20 F1           9.1460     4.1710    -0.6290 f          1 FOJ      -0.173300
     21 C7           6.1380     2.2340     0.1520 ca         1 FOJ       0.044700
     22 C6           7.6310     2.3700    -0.0290 c3         1 FOJ       0.192400
     23 O3           8.1550     1.1490    -0.5530 oh         1 FOJ      -0.542800
     24 C1           5.4580     1.1080     0.6190 ca         1 FOJ      -0.198300
     25 C9           6.2340    -0.1310     0.9830 c3         1 FOJ       0.473200
     26 F3           6.9350    -0.5890    -0.1390 f          1 FOJ      -0.217800
     27 F4           7.1390     0.1690     2.0070 f          1 FOJ      -0.217800
     28 H1           1.9380     0.0010    -0.9380 ha         1 FOJ       0.136000
     29 H2           1.9320    -0.0010     3.3400 ha         1 FOJ       0.138000
     30 H3          -1.7770     0.0040     1.2170 ha         1 FOJ       0.135000
     31 H4           2.3050     2.3100     0.7000 ha         1 FOJ       0.136000
     32 H5           3.4560     4.2520    -0.2990 ha         1 FOJ       0.115000
     33 H6           8.0860     2.5750     0.9320 h1         1 FOJ       0.058700
     34 H7           9.0970     1.1720    -0.5210 ho         1 FOJ       0.407000
     35 H8           5.5490    -0.9010     1.3200 h2         1 FOJ       0.042700
@<TRIPOS>BOND
     1     1     2 3   
     2     2     3 1   
     3     3     4 ar  
     4     3     9 ar  
     5     4     5 ar  
     6     4    28 1   
     7     5     6 ar  
     8     5    10 1   
     9     6     7 ar  
    10     6    29 1   
    11     7     8 1   
    12     7     9 ar  
    13     9    30 1   
    14    10    11 1   
    15    11    12 ar  
    16    11    24 ar  
    17    12    13 ar  
    18    12    31 1   
    19    13    14 ar  
    20    13    32 1   
    21    14    15 1   
    22    14    21 ar  
    23    15    16 2   
    24    15    17 2   
    25    15    18 1   
    26    18    19 1   
    27    18    20 1   
    28    18    22 1   
    29    21    22 1   
    30    21    24 ar  
    31    22    23 1   
    32    22    33 1   
    33    23    34 1   
    34    24    25 1   
    35    25    26 1   
    36    25    27 1   
    37    25    35 1   
@<TRIPOS>SUBSTRUCTURE
     1 FOJ         1 TEMP              0 ****  ****    0 ROOT
