@<TRIPOS>MOLECULE
molecule
   35    37     1     0     0
SMALL
bcc


@<TRIPOS>ATOM
      1 N1          -1.2880    -0.0200    -2.2210 n1         1 FOJ      -0.327800
      2 C16         -0.7190    -0.0000    -1.2390 cg         1 FOJ       0.228800
      3 C11          0.0000     0.0000     0.0000 ca         1 FOJ       0.027000
      4 C12          1.3950     0.0000     0.0000 ca         1 FOJ      -0.129000
      5 C13          2.0850     0.0000     1.2010 ca         1 FOJ       0.115100
      6 C14          1.3890    -0.0010     2.4020 ca         1 FOJ      -0.155000
      7 C15          0.0040    -0.0020     2.4060 ca         1 FOJ       0.149900
      8 F5          -0.6670    -0.0040     3.5780 f          1 FOJ      -0.121900
      9 C10         -0.6930     0.0040     1.2120 ca         1 FOJ      -0.133000
     10 O4           3.4440     0.0000     1.2040 os         1 FOJ      -0.240200
     11 C2           4.0820     1.1100     0.7490 ca         1 FOJ       0.204100
     12 C3           3.3500     2.2430     0.4230 ca         1 FOJ      -0.220000
     13 C4           4.0150     3.3610    -0.0410 ca         1 FOJ       0.055000
     14 C8           5.3890     3.3500    -0.1740 ca         1 FOJ      -0.292500
     15 S1           6.5060     4.6070    -0.7460 sy         1 FOJ       1.150300
     16 O1           6.6870     5.4840     0.3570 o          1 FOJ      -0.561300
     17 O2           5.9690     5.0570    -1.9830 o          1 FOJ      -0.561300
     18 C5           7.9630     3.5220    -1.0000 c3         1 FOJ       0.294400
     19 F2           8.0320     3.0680    -2.3210 f          1 FOJ      -0.182800
     20 F1           9.1460     4.1710    -0.6290 f          1 FOJ      -0.182800
     21 C7           6.1380     2.2340     0.1520 ca         1 FOJ       0.038700
     22 C6           7.6310     2.3700    -0.0290 c3         1 FOJ       0.135400
     23 O3           8.1550     1.1490    -0.5530 oh         1 FOJ      -0.547800
     24 C1           5.4580     1.1080     0.6190 ca         1 FOJ      -0.163300
     25 C9           6.2340    -0.1310     0.9830 c3         1 FOJ       0.458200
     26 F3           6.9350    -0.5890    -0.1390 f          1 FOJ      -0.227300
     27 F4           7.1390     0.1690     2.0070 f          1 FOJ      -0.227300
     28 H1           1.9380     0.0010    -0.9380 ha         1 FOJ       0.165000
     29 H2           1.9320    -0.0010     3.3400 ha         1 FOJ       0.168000
     30 H3          -1.7770     0.0040     1.2170 ha         1 FOJ       0.166000
     31 H4           2.3050     2.3100     0.7000 ha         1 FOJ       0.160000
     32 H5           3.4560     4.2520    -0.2990 ha         1 FOJ       0.154000
     33 H6           8.0860     2.5750     0.9320 h1         1 FOJ       0.095700
     34 H7           9.0970     1.1720    -0.5210 ho         1 FOJ       0.422000
     35 H8           5.5490    -0.9010     1.3200 h2         1 FOJ       0.085700
@<TRIPOS>BOND
     1    27    25 1
     2    26    25 1
     3    25    24 1
     4    10     5 1
     5    10    11 1
     6     6     5 ar
     7     6     7 ar
     8     8     7 1
     9    24    11 ar
    10    24    21 ar
    11     5     4 ar
    12     7     9 ar
    13    23    22 1
    14    11    12 ar
    15    22    21 1
    16    22    18 1
    17     4     3 ar
    18     9     3 ar
    19    21    14 ar
    20     3     2 1
    21    20    18 1
    22    18    19 1
    23    18    15 1
    24     2     1 3
    25    12    13 ar
    26    14    13 ar
    27    14    15 1
    28    15    17 2
    29    15    16 2
    30     4    28 1
    31     6    29 1
    32     9    30 1
    33    12    31 1
    34    13    32 1
    35    22    33 1
    36    23    34 1
    37    25    35 1
@<TRIPOS>SUBSTRUCTURE
     1 FOJ         1 TEMP              0 ****  ****    0 ROOT
