@<TRIPOS>MOLECULE
FOK
   63    65     1     0     0
SMALL
bcc


@<TRIPOS>ATOM
      1 C1          0.1000   -0.0770   -0.1450 c3        1 FOK      0.137100
      2 O2         -0.4980    1.0910    0.4100 oh        1 FOK     -0.623800
      3 C2          1.6200    0.0320   -0.0510 c3        1 FOK     -0.107400
      4 C3          2.0790    0.0350    1.3860 c3        1 FOK     -0.073400
      5 C4          1.6450   -1.2210    2.1520 c3        1 FOK     -0.031000
      6 C5          0.1180   -1.3730    2.0240 c3        1 FOK     -0.040700
      7 C6         -0.4460   -2.5190    2.8750 c3        1 FOK      0.147100
      8 O3          0.0720   -3.7750    2.4730 oh        1 FOK     -0.599800
      9 C7         -1.9880   -2.5100    2.8820 c3        1 FOK      0.117100
     10 O4         -2.4130   -3.7340    3.5050 os        1 FOK     -0.452900
     11 C8         -2.6300   -2.4610    1.4740 c3        1 FOK      0.178800
     12 O1         -4.0070   -2.1680    1.7570 os        1 FOK     -0.407600
     13 C9         -1.9980   -1.2400    0.7250 c3        1 FOK      0.056800
     14 O6         -2.3480   -0.1440    1.5750 oh        1 FOK     -0.583800
     15 C10        -0.4450   -1.3320    0.5880 c3        1 FOK     -0.017000
     16 C11        -2.7780   -1.1060   -0.5830 c         1 FOK      0.554100
     17 O7         -2.2860   -1.1500   -1.7110 o         1 FOK     -0.519100
     18 C12        -4.2420   -0.8700   -0.3530 c3        1 FOK     -0.205400
     19 C13        -4.8730   -1.8300    0.6660 c3        1 FOK      0.211000
     20 C14        -6.0610   -1.1290    1.2820 c2        1 FOK     -0.189200
     21 C15        -6.1780   -0.8040    2.5660 c2        1 FOK     -0.179000
     22 C16        -5.3710   -3.0940   -0.0350 c3        1 FOK     -0.117100
     23 C17        -2.5250   -3.7910    0.7480 c3        1 FOK     -0.121100
     24 C18         1.9970   -0.9880    3.6250 c3        1 FOK     -0.091600
     25 C19         2.4580   -2.4130    1.6750 c3        1 FOK     -0.091600
     26 C20        -0.0510   -2.5300   -0.2680 c3        1 FOK     -0.107100
     27 C21        -2.9970   -3.6720    4.7440 c         1 FOK      0.641100
     28 O5         -3.0090   -2.6010    5.3500 o         1 FOK     -0.532000
     29 C22        -3.5330   -4.9900    5.1840 c3        1 FOK     -0.151100
     30 H1         -0.2090   -0.1470   -1.2300 h1        1 FOK      0.057700
     31 HO2        -0.0580    1.8510    0.0120 ho        1 FOK      0.408000
     32 H21         1.9440    0.9870   -0.5460 hc        1 FOK      0.048200
     33 H22         2.1020   -0.8060   -0.6150 hc        1 FOK      0.048200
     34 H31         3.1960    0.1180    1.4220 hc        1 FOK      0.045200
     35 H32         1.6500    0.9360    1.9010 hc        1 FOK      0.045200
     36 H5         -0.3060   -0.4340    2.5100 hc        1 FOK      0.084700
     37 H6         -0.1300   -2.3430    3.9490 h1        1 FOK      0.045700
     38 HO3        -0.3910   -4.4480    2.9890 ho        1 FOK      0.411000
     39 H7         -2.3540   -1.6130    3.4620 h1        1 FOK      0.122700
     40 HO6        -2.3130    0.6710    1.0610 ho        1 FOK      0.426000
     41 H121       -4.3460    0.1840    0.0260 hc        1 FOK      0.082200
     42 H122       -4.8020   -0.9450   -1.3220 hc        1 FOK      0.082200
     43 H14        -6.8500   -0.9000    0.5480 ha        1 FOK      0.120000
     44 H151       -5.3940   -1.0220    3.3060 ha        1 FOK      0.124000
     45 H152       -7.0680   -0.2950    2.9570 ha        1 FOK      0.124000
     46 H161       -5.5650   -3.8910    0.7220 hc        1 FOK      0.046033
     47 H162       -4.6210   -3.4670   -0.7710 hc        1 FOK      0.046033
     48 H163       -6.3190   -2.8760   -0.5820 hc        1 FOK      0.046033
     49 H171       -3.3430   -4.4620    1.1100 hc        1 FOK      0.056700
     50 H172       -2.6220   -3.6600   -0.3550 hc        1 FOK      0.056700
     51 H173       -1.5490   -4.2840    0.9730 hc        1 FOK      0.056700
     52 H181        3.0510   -0.6280    3.7090 hc        1 FOK      0.038200
     53 H182        1.9090   -1.9380    4.2040 hc        1 FOK      0.038200
     54 H183        1.3240   -0.2230    4.0790 hc        1 FOK      0.038200
     55 H191        3.5450   -2.2170    1.8530 hc        1 FOK      0.038200
     56 H192        2.3110   -2.6000    0.5870 hc        1 FOK      0.038200
     57 H193        2.1710   -3.3370    2.2340 hc        1 FOK      0.038200
     58 H201        0.1750   -3.4210    0.3650 hc        1 FOK      0.052700
     59 H202        0.8600   -2.3140   -0.8790 hc        1 FOK      0.052700
     60 H203       -0.8610   -2.7880   -0.9920 hc        1 FOK      0.052700
     61 H221       -3.2960   -5.1410    6.2650 hc        1 FOK      0.076033
     62 H222       -3.0950   -5.8220    4.5810 hc        1 FOK      0.076033
     63 H223       -4.6430   -4.9840    5.0470 hc        1 FOK      0.076033
@<TRIPOS>BOND
     1    1    2 1   
     2    1    3 1   
     3    1   15 1   
     4    1   30 1   
     5    2   31 1   
     6    3    4 1   
     7    3   32 1   
     8    3   33 1   
     9    4    5 1   
    10    4   34 1   
    11    4   35 1   
    12    5    6 1   
    13    5   24 1   
    14    5   25 1   
    15    6    7 1   
    16    6   15 1   
    17    6   36 1   
    18    7    8 1   
    19    7    9 1   
    20    7   37 1   
    21    8   38 1   
    22    9   10 1   
    23    9   11 1   
    24    9   39 1   
    25   10   27 1   
    26   11   12 1   
    27   11   13 1   
    28   11   23 1   
    29   12   19 1   
    30   13   14 1   
    31   13   15 1   
    32   13   16 1   
    33   14   40 1   
    34   15   26 1   
    35   16   17 2   
    36   16   18 1   
    37   18   19 1   
    38   18   41 1   
    39   18   42 1   
    40   19   20 1   
    41   19   22 1   
    42   20   21 2   
    43   20   43 1   
    44   21   44 1   
    45   21   45 1   
    46   22   46 1   
    47   22   47 1   
    48   22   48 1   
    49   23   49 1   
    50   23   50 1   
    51   23   51 1   
    52   24   52 1   
    53   24   53 1   
    54   24   54 1   
    55   25   55 1   
    56   25   56 1   
    57   25   57 1   
    58   26   58 1   
    59   26   59 1   
    60   26   60 1   
    61   27   28 2   
    62   27   29 1   
    63   29   61 1   
    64   29   62 1   
    65   29   63 1   
@<TRIPOS>SUBSTRUCTURE
     1 FOK         1 TEMP              0 ****  ****    0 ROOT
