@<TRIPOS>MOLECULE
molecule
   63    65     1     0     0
SMALL
bcc


@<TRIPOS>ATOM
      1 C1           0.0000     0.0000     0.0000 c3         1 FOK       0.143100
      2 O2          -0.4480     1.1310     0.7410 oh         1 FOK      -0.600800
      3 C2           1.5300     0.0000     0.0000 c3         1 FOK      -0.111400
      4 C3           2.0370     0.0000     1.4370 c3         1 FOK      -0.062400
      5 C4           1.5200    -1.2080     2.2210 c3         1 FOK      -0.047000
      6 C5           0.0290    -1.4040     2.0590 c3         1 FOK      -0.043700
      7 C6          -0.5150    -2.6240     2.7820 c3         1 FOK       0.143100
      8 O3          -0.0750    -3.8560     2.2250 oh         1 FOK      -0.599800
      9 C7          -2.0400    -2.5820     2.8370 c3         1 FOK       0.158100
     10 O4          -2.5320    -3.8060     3.4500 os         1 FOK      -0.428900
     11 C8          -2.6730    -2.4290     1.4520 c3         1 FOK       0.185800
     12 O1          -4.0500    -2.1230     1.6340 os         1 FOK      -0.395600
     13 C9          -2.0250    -1.2690     0.7020 c3         1 FOK       0.050800
     14 O6          -2.4290    -0.0630     1.4010 oh         1 FOK      -0.568800
     15 C10         -0.5100    -1.3040     0.6380 c3         1 FOK      -0.024000
     16 C11         -2.6910    -1.2320    -0.6580 c          1 FOK       0.549100
     17 O7          -2.1140    -1.3460    -1.7070 o          1 FOK      -0.500100
     18 C12         -4.1920    -1.0110    -0.6070 c3         1 FOK      -0.206400
     19 C13         -4.8390    -1.7870     0.5330 c3         1 FOK       0.204000
     20 C14         -5.9720    -0.9000     1.0600 c2         1 FOK      -0.203200
     21 C15         -5.9630    -0.5010     2.3080 c2         1 FOK      -0.184000
     22 C16         -5.5360    -3.0310    -0.0510 c3         1 FOK      -0.112100
     23 C17         -2.5690    -3.7570     0.7060 c3         1 FOK      -0.125100
     24 C18          1.8070    -0.9010     3.7130 c3         1 FOK      -0.087600
     25 C19          2.3480    -2.4380     1.8500 c3         1 FOK      -0.087600
     26 C20         -0.0080    -2.4500    -0.2420 c3         1 FOK      -0.110100
     27 C21         -2.6810    -3.8780     4.7820 c          1 FOK       0.632100
     28 O5          -2.4080    -2.9250     5.4720 o          1 FOK      -0.554000
     29 C22         -3.1920    -5.1450     5.4170 c3         1 FOK      -0.137100
     30 H1          -0.3590     0.0660    -1.0200 h1         1 FOK       0.044700
     31 HO2         -0.3420     1.9100     0.2210 ho         1 FOK       0.396000
     32 H21          1.8900    -0.8860    -0.5090 hc         1 FOK       0.048700
     33 H22          1.8900     0.8860    -0.5090 hc         1 FOK       0.048700
     34 H31          3.1200    -0.0250     1.4270 hc         1 FOK       0.048200
     35 H32          1.7040     0.9070     1.9280 hc         1 FOK       0.048200
     36 H5          -0.4110    -0.5600     2.5770 hc         1 FOK       0.088700
     37 H6          -0.1550    -2.5790     3.8030 h1         1 FOK       0.049700
     38 HO3          0.1810    -4.4410     2.9190 ho         1 FOK       0.403000
     39 H7          -2.3390    -1.7380     3.4470 h1         1 FOK       0.098700
     40 HO6         -2.6890     0.5920     0.7740 ho         1 FOK       0.406000
     41 H121        -4.3870     0.0460    -0.4680 hc         1 FOK       0.080700
     42 H122        -4.6270    -1.3350    -1.5450 hc         1 FOK       0.080700
     43 H14         -6.7790    -0.6020     0.4020 ha         1 FOK       0.126000
     44 H151        -6.7630     0.1260     2.6820 ha         1 FOK       0.124500
     45 H152        -5.1560    -0.7990     2.9660 ha         1 FOK       0.124500
     46 H161        -4.8740    -3.5190    -0.7560 hc         1 FOK       0.044367
     47 H162        -5.7800    -3.7170     0.7500 hc         1 FOK       0.044367
     48 H163        -6.4450    -2.7300    -0.5580 hc         1 FOK       0.044367
     49 H171        -3.3620    -4.4180     1.0320 hc         1 FOK       0.058700
     50 H172        -1.6090    -4.2140     0.9150 hc         1 FOK       0.058700
     51 H173        -2.6600    -3.5810    -0.3590 hc         1 FOK       0.058700
     52 H181         1.7380    -1.8160     4.2890 hc         1 FOK       0.036200
     53 H182         1.0810    -0.1870     4.0810 hc         1 FOK       0.036200
     54 H183         2.8030    -0.4870     3.8110 hc         1 FOK       0.036200
     55 H191         3.3980    -2.1720     1.8240 hc         1 FOK       0.036200
     56 H192         2.0420    -2.7980     0.8750 hc         1 FOK       0.036200
     57 H193         2.1910    -3.2150     2.5880 hc         1 FOK       0.036200
     58 H201        -0.7880    -2.7420    -0.9350 hc         1 FOK       0.058033
     59 H202         0.8640    -2.1250    -0.7960 hc         1 FOK       0.058033
     60 H203         0.2560    -3.2960     0.3820 hc         1 FOK       0.058033
     61 H221        -3.9610    -4.9020     6.1410 hc         1 FOK       0.069367
     62 H222        -2.3760    -5.6540     5.9140 hc         1 FOK       0.069367
     63 H223        -3.6080    -5.7900     4.6520 hc         1 FOK       0.069367
@<TRIPOS>BOND
     1     1     2 1
     2     1     3 1
     3     1    15 1
     4     1    30 1
     5     2    31 1
     6     3     4 1
     7     3    32 1
     8     3    33 1
     9     4     5 1
    10     4    34 1
    11     4    35 1
    12     5     6 1
    13     5    24 1
    14     5    25 1
    15     6     7 1
    16     6    15 1
    17     6    36 1
    18     7     8 1
    19     7     9 1
    20     7    37 1
    21     8    38 1
    22     9    10 1
    23     9    11 1
    24     9    39 1
    25    10    27 1
    26    11    12 1
    27    11    13 1
    28    11    23 1
    29    12    19 1
    30    13    14 1
    31    13    15 1
    32    13    16 1
    33    14    40 1
    34    15    26 1
    35    16    17 2
    36    16    18 1
    37    18    19 1
    38    18    41 1
    39    18    42 1
    40    19    20 1
    41    19    22 1
    42    20    21 2
    43    20    43 1
    44    21    44 1
    45    21    45 1
    46    22    46 1
    47    22    47 1
    48    22    48 1
    49    23    49 1
    50    23    50 1
    51    23    51 1
    52    24    52 1
    53    24    53 1
    54    24    54 1
    55    25    55 1
    56    25    56 1
    57    25    57 1
    58    26    58 1
    59    26    59 1
    60    26    60 1
    61    27    28 2
    62    27    29 1
    63    29    61 1
    64    29    62 1
    65    29    63 1
@<TRIPOS>SUBSTRUCTURE
     1 FOK         1 TEMP              0 ****  ****    0 ROOT
