@<TRIPOS>MOLECULE
FOL
   50    52     1     0     0
SMALL
bcc


@<TRIPOS>ATOM
      1 N1         -3.4240    1.4860    4.4910 na        1 FOL     -0.272000
      2 C2         -2.6980    2.5320    3.8450 c2        1 FOL      0.271000
      3 NA2        -3.3450    3.7810    3.7850 nh        1 FOL     -0.325000
      4 N3         -1.5280    2.3500    3.2310 n2        1 FOL     -0.329000
      5 C4         -0.9020    1.0910    3.2460 c2        1 FOL      0.339000
      6 O4          0.1040    0.8910    2.5500 o         1 FOL     -0.294000
      7 C4A        -1.4760    0.0380    4.1460 c2        1 FOL     -0.214000
      8 N5         -0.7480   -1.0810    4.4500 n2        1 FOL     -0.011000
      9 C6         -1.3200   -1.9750    5.2530 c2        1 FOL     -0.207000
     10 C7         -2.6760   -1.8580    5.7640 c1        1 FOL     -0.119000
     11 N8         -3.3430   -0.7290    5.5000 nh        1 FOL     -0.110000
     12 C8A        -2.7670    0.2850    4.7150 c2        1 FOL      0.111000
     13 C9         -0.5310   -3.1470    5.8090 c3        1 FOL      0.018000
     14 N10         0.2110   -2.8050    7.0080 n3        1 FOL     -0.271000
     15 C11        -2.1670   -0.8710    9.8880 c2        1 FOL     -0.255000
     16 C12        -0.8300   -0.5440    9.7670 c2        1 FOL      0.053000
     17 C13         0.0080   -1.2480    8.8670 c2        1 FOL     -0.311000
     18 C14        -0.4960   -2.2840    8.0930 c2        1 FOL      0.090000
     19 C15        -1.8400   -2.8500    8.4510 c3        1 FOL     -0.215000
     20 C16        -2.6380   -2.1000    9.4000 c1        1 FOL     -0.108000
     21 O          -2.7660    0.9200   11.3750 o         1 FOL     -0.424000
     22 N          -4.3770    0.0990    9.9290 n         1 FOL     -0.343000
     23 CA         -5.4840    0.9100   10.3700 c3        1 FOL     -0.075000
     24 CB         -5.4740    2.3810    9.9050 c3        1 FOL     -0.159000
     25 CG         -4.3380    2.8420    9.0250 c3        1 FOL     -0.184000
     26 CD         -4.4550    2.5190    7.5690 c2        1 FOL      0.343000
     27 OE1        -4.9920    1.3770    7.0850 oh        1 FOL     -0.375000
     28 OE2        -4.0060    3.2430    6.6570 o         1 FOL     -0.451000
     29 CT         -6.8390    0.2960    9.8550 c2        1 FOL      0.331000
     30 O1         -6.9140    0.0340    8.6120 o         1 FOL     -0.549500
     31 O2         -7.7610    0.1340   10.6850 o         1 FOL     -0.549500
     32 HN1        -4.2230    1.7230    5.0610 hn        1 FOL      0.292000
     33 HN21       -3.9070    4.0110    4.5810 hn        1 FOL      0.230000
     34 HN22       -2.7660    4.5260    3.4610 hn        1 FOL      0.230000
     35 H7         -4.2440   -0.5760    5.9260 hn        1 FOL      0.295000
     36 H91        -1.2570   -3.9740    6.0520 h1        1 FOL      0.115500
     37 H92         0.2080   -3.5260    5.0490 h1        1 FOL      0.115500
     38 HN0         1.0450   -2.2880    6.8000 hn        1 FOL      0.192000
     39 H12         1.0390   -0.8870    8.7350 ha        1 FOL      0.132000
     40 H13        -0.4090    0.3070   10.3310 ha        1 FOL      0.146000
     41 H15        -2.5150   -2.9340    7.5270 hc        1 FOL      0.192000
     42 H16        -1.7060   -3.9010    8.8370 hc        1 FOL      0.192000
     43 HN         -4.6360   -0.7080    9.3950 hn        1 FOL      0.251000
     44 HA         -5.5550    0.9080    7.7580 ho        1 FOL      0.326000
     45 HB1        -5.5050    0.9150   11.4990 h1        1 FOL      0.107000
     46 HB2        -5.4570    3.0200   10.8290 hc        1 FOL      0.091500
     47 HG1        -6.4460    2.5870    9.3790 hc        1 FOL      0.091500
     48 HG2        -4.2540    3.9620    9.1010 hc        1 FOL      0.121000
     49 H2         -3.3600    2.4190    9.3870 hc        1 FOL      0.121000
     50 C          -3.1260    0.0930   10.5030 c2        1 FOL      0.357000
@<TRIPOS>BOND
     1    1    2 1
     2    1   12 1
     3    1   32 1
     4    2    3 1
     5    2    4 1
     6    3   33 1
     7    3   34 1
     8    4    5 1
     9    5    6 1
    10    5    7 1
    11    7    8 1
    12    7   12 1
    13    8    9 1
    14    9   10 1
    15    9   13 1
    16   10   11 1
    17   11   12 1
    18   11   35 1
    19   13   14 1
    20   13   36 1
    21   13   37 1
    22   14   18 1
    23   14   38 1
    24   15   16 1
    25   15   20 1
    26   15   50 1
    27   16   17 1
    28   16   40 1
    29   17   18 1
    30   17   39 1
    31   18   19 1
    32   19   20 1
    33   19   41 1
    34   19   42 1
    35   21   50 1
    36   22   23 1
    37   22   43 1
    38   22   50 1
    39   23   24 1
    40   23   29 1
    41   23   45 1
    42   24   25 1
    43   24   46 1
    44   24   47 1
    45   25   26 1
    46   25   48 1
    47   25   49 1
    48   26   27 1
    49   26   28 1
    50   27   44 1
    51   29   30 1
    52   29   31 1
@<TRIPOS>SUBSTRUCTURE
     1 FOL         1 TEMP              0 ****  ****    0 ROOT
