@<TRIPOS>MOLECULE
FOM
   19    18     1     0     0
SMALL
bcc


@<TRIPOS>ATOM
      1 O2           0.0000     0.0000     0.0000 oh         1 FOM      -0.436100
      2 N1           1.4160     0.0000     0.0000 n          1 FOM      -0.018300
      3 C1           2.0880     0.0000     1.1670 c          1 FOM       0.618900
      4 O1           1.4830    -0.0000     2.2160 o          1 FOM      -0.714100
      5 C2           2.1480     0.0000    -1.2690 c3         1 FOM       0.011000
      6 C3           2.4030    -1.4420    -1.7110 c3         1 FOM      -0.001400
      7 C4           3.1670    -1.4400    -3.0360 c3         1 FOM      -0.047600
      8 PA1          3.4720    -3.1580    -3.5630 p5         1 FOM       0.431700
      9 OP1          2.1800    -3.8570    -3.7390 o          1 FOM      -0.748833
     10 OP2          4.2770    -3.1590    -4.9570 o          1 FOM      -0.748833
     11 OP3          4.3420    -3.9180    -2.4410 o          1 FOM      -0.748833
     12 HO2         -0.3140     0.8840     0.0940 ho         1 FOM       0.363000
     13 H1           3.1710     0.0160     1.1670 h5         1 FOM      -0.011800
     14 H21          1.5620     0.5110    -2.0240 h1         1 FOM       0.007700
     15 H22          3.0940     0.5110    -1.1400 h1         1 FOM       0.007700
     16 H31          1.4560    -1.9530    -1.8410 hc         1 FOM       0.030700
     17 H32          2.9890    -1.9530    -0.9570 hc         1 FOM       0.030700
     18 H41          2.5820    -0.9290    -3.7900 hc         1 FOM      -0.013300
     19 H42          4.1140    -0.9290    -2.9060 hc         1 FOM      -0.013300
@<TRIPOS>BOND
     1     1     2 1   
     2     1    12 1   
     3     2     3 1   
     4     2     5 1   
     5     3     4 2   
     6     3    13 1   
     7     5     6 1   
     8     5    14 1   
     9     5    15 1   
    10     6     7 1   
    11     6    16 1   
    12     6    17 1   
    13     7     8 1   
    14     7    18 1   
    15     7    19 1   
    16     8     9 1   
    17     8    10 1   
    18     8    11 1   
@<TRIPOS>SUBSTRUCTURE
     1 FOM         1 TEMP              0 ****  ****    0 ROOT
