@<TRIPOS>MOLECULE
FON
   56    54     1     0     0
SMALL
bcc


@<TRIPOS>ATOM
      1 N1         -1.2850   -3.1190    0.8000 na        1 FON     -0.711000
      2 C2         -0.5840   -2.8370   -0.3960 cc        1 FON      0.877100
      3 NA2        -0.2490   -3.9180   -1.2010 nh        1 FON     -0.909800
      4 N3         -0.1780   -1.5960   -0.7410 nd        1 FON     -0.779100
      5 C4         -0.4220   -0.5250    0.1130 c         1 FON      0.722700
      6 O4         -0.0430    0.6250   -0.2030 o         1 FON     -0.626100
      7 C4A        -1.1420   -0.7830    1.3970 cc        1 FON     -0.118200
      8 N5         -1.4130    0.2930    2.2840 nh        1 FON     -0.441200
      9 C6         -0.2940    1.1460    2.6560 c3        1 FON      0.157800
     10 C7         -3.4090   -2.0580    3.1500 c2        1 FON      0.520100
     11 N8         -2.2050   -2.4260    2.9170 nf        1 FON     -0.620300
     12 C8A        -1.5620   -2.0830    1.6890 cd        1 FON      0.369600
     13 C9          0.2380    0.9120    4.0620 c3        1 FON     -0.115100
     14 N10        -1.6150   -6.4150   11.1750 n1        1 FON     -0.385800
     15 C11        -1.2590   -7.5270    6.5980 ce        1 FON      0.001100
     16 C12        -1.0640   -7.5050    7.9320 c2        1 FON     -0.105200
     17 C13        -0.8190   -6.2550    8.6940 c3        1 FON      0.000900
     18 C14        -1.2620   -6.3520   10.0690 c1        1 FON      0.220700
     19 C15        -1.2800   -5.4120    5.0790 c1        1 FON     -0.048500
     20 C16        -1.2730   -6.3770    5.7900 cg        1 FON     -0.245300
     21 O          -1.1260   -9.9160    6.5180 o         1 FON     -0.623100
     22 N          -2.0240   -8.8730    4.6720 n         1 FON     -0.464100
     23 CA         -2.1220  -10.0430    3.9200 c2        1 FON     -0.011400
     24 CB         -2.7480  -10.1550    2.7310 c2        1 FON     -0.243200
     25 CG         -3.5010   -9.0970    2.0270 c3        1 FON     -0.099200
     26 CD         -2.6490   -7.9400    1.5660 c         1 FON      0.674100
     27 OE1        -2.0440   -7.1490    2.3040 o         1 FON     -0.602000
     28 OE2        -2.5840   -7.8170    0.2310 os        1 FON     -0.516200
     29 CT         -2.0830   -6.6080   -0.3620 c         1 FON      0.529100
     30 O1         -1.2360   -6.8260   -1.2460 o         1 FON     -0.528500
     31 O2         -2.6270   -5.5600    0.0490 o         1 FON     -0.528500
     32 CP1        -2.6780    0.4660    2.7250 c1        1 FON      0.060600
     33 O3         -3.0190    1.4430    3.5570 oh        1 FON     -0.484600
     34 HN1        -1.6610   -4.0430    0.9620 hn        1 FON      0.516800
     35 HN21       -0.7390   -4.7870   -1.0910 hn        1 FON      0.461300
     36 HN22        0.0880   -3.7060   -2.1110 hn        1 FON      0.461300
     37 H61        -0.6250    2.2210    2.5600 h1        1 FON      0.069200
     38 H7          0.5470    0.9970    1.9190 h1        1 FON      0.069200
     39 HC72       -4.0850   -1.5040    2.4700 h4        1 FON      0.005300
     40 HN8        -3.8210   -2.3160    4.1450 h4        1 FON      0.005300
     41 H91        -0.5500    1.0900    4.8330 hc        1 FON      0.038033
     42 H92         0.6130   -0.1330    4.1790 hc        1 FON      0.038033
     43 HN0         1.0840    1.6160    4.2470 hc        1 FON      0.038033
     44 H12        -1.3350   -5.3810    8.2020 hc        1 FON      0.092700
     45 H13        -1.0560   -8.4510    8.5020 ha        1 FON      0.162000
     46 H15         0.2890   -6.0360    8.6850 hc        1 FON      0.092700
     47 H16        -1.2940   -4.5780    4.4160 ha        1 FON      0.195500
     48 HN         -4.9270   -6.5180    1.6730 ha        1 FON      0.000000
     49 HA         -2.2000   -8.0000    4.2070 hn        1 FON      0.362500
     50 HB1        -1.6380  -10.9240    4.3920 h4        1 FON      0.155000
     51 HB2        -2.7240  -11.1330    2.2250 ha        1 FON      0.132000
     52 HG1        -4.2880   -8.6620    2.7050 hc        1 FON      0.070200
     53 HG2        -4.0230   -9.5340    1.1340 hc        1 FON      0.070200
     54 HCP1       -2.3180    2.0620    3.8350 ho        1 FON      0.369000
     55 H2         -4.4560   -6.2240    1.2810 ha        1 FON      0.000000
     56 C          -1.4490   -8.8610    5.9300 c         1 FON      0.668300
@<TRIPOS>BOND
     1    1    2 1
     2    1   12 1
     3    1   34 1
     4    2    3 1
     5    2    4 2
     6    3   35 1
     7    3   36 1
     8    4    5 1
     9    5    6 2
    10    5    7 1
    11    7    8 1
    12    7   12 2
    13    8    9 1
    14    8   32 3
    15    9   13 1
    16    9   37 1
    17    9   38 1
    18   10   11 2
    19   10   39 1
    20   10   40 1
    21   11   12 1
    22   13   41 1
    23   13   42 1
    24   13   43 1
    25   14   18 3
    26   15   16 2
    27   15   20 1
    28   15   56 1
    29   16   17 1
    30   16   45 1
    31   17   18 1
    32   17   44 1
    33   17   46 1
    34   19   20 3
    35   19   47 1
    36   21   56 2
    37   22   23 1
    38   22   49 1
    39   22   56 1
    40   23   24 2
    41   23   50 1
    42   24   25 1
    43   24   51 1
    44   25   26 1
    45   25   52 1
    46   25   53 1
    47   26   27 2
    48   26   28 1
    49   28   29 1
    50   29   30 1
    51   29   31 1
    52   32   33 1
    53   33   54 1
    54   48   55 1
@<TRIPOS>SUBSTRUCTURE
     1 FON         1 TEMP              0 ****  ****    0 ROOT
