@<TRIPOS>MOLECULE
FOO
   31    33     1     0     0
SMALL
bcc


@<TRIPOS>ATOM
      1 N1           0.0000     0.0000     0.0000 n2         1 FOO      -0.124000
      2 C2           1.3520     0.0000     0.0000 c2         1 FOO      -0.157000
      3 C2A          2.0030     0.0000    -1.3450 c3         1 FOO      -0.049000
      4 C3           2.1280     0.0000     1.1480 c2         1 FOO      -0.001000
      5 O3           3.4850     0.0010     1.0670 oh         1 FOO      -0.237000
      6 C4           1.4660     0.0010     2.3620 c3         1 FOO       0.095000
      7 C5           0.0840     0.0010     2.4160 c2         1 FOO      -0.100000
      8 C6          -0.6010     0.0000     1.2110 c2         1 FOO      -0.092000
      9 C5A         -0.6820     0.0000     3.6950 c3         1 FOO       0.140000
     10 O4P         -0.9240    -1.3420     4.1010 os         1 FOO      -0.626000
     11 P           -1.7430    -1.5930     5.4710 p5         1 FOO       0.885500
     12 O1P         -3.0910    -0.7210     5.2790 o          1 FOO      -0.736167
     13 O2P         -1.9570    -3.0340     5.8300 o          1 FOO      -0.736167
     14 O3P         -0.8990    -0.7380     6.5530 o          1 FOO      -0.736167
     15 N            3.7640    -2.1310     6.1620 n2         1 FOO      -0.333000
     16 CA           3.4030    -1.0620     5.5310 c3         1 FOO       0.113000
     17 C            3.8040     0.2590     6.1120 c2         1 FOO       0.418000
     18 OXT          2.8490     0.6770     6.9540 o          1 FOO      -0.590000
     19 CB           2.6270    -1.1050     4.2690 c2         1 FOO       0.016000
     20 O            4.8510     0.8030     5.8290 o          1 FOO      -0.590000
     21 C7           2.2460     0.0000     3.6130 c2         1 FOO      -0.284000
     22 H6          -1.6840     0.0000     1.2410 h4         1 FOO       0.118000
     23 H2A1         2.7060    -0.8220    -1.4060 hc         1 FOO       0.028333
     24 H2A2         2.5280     0.9360    -1.4920 hc         1 FOO       0.028333
     25 H2A3         1.2470    -0.1140    -2.1120 hc         1 FOO       0.028333
     26 H3           3.7920     0.8830     0.9370 ho         1 FOO       0.180000
     27 H7           1.2410    -0.3920     3.5120 DU         1 FOO       0.157000
     28 H5A1        -0.1080     0.5110     4.4600 h1         1 FOO       0.059000
     29 H5A2        -1.6270     0.5100     3.5510 h1         1 FOO       0.059000
     30 H            4.2900    -2.0570     7.0100 hn         1 FOO       0.056000
     31 HB           3.6640    -0.7980     4.3360 DU         1 FOO       0.009000
@<TRIPOS>BOND
     1     1     2 1   
     2     1     8 1   
     3     2     3 1   
     4     2     4 1   
     5     3    23 1   
     6     3    24 1   
     7     3    25 1   
     8     4     5 1   
     9     4     6 1   
    10     5    26 1   
    11     6     7 1   
    12     6    21 1   
    13     6    27 1   
    14     7     8 1   
    15     7     9 1   
    16     8    22 1   
    17     9    10 1   
    18     9    28 1   
    19     9    29 1   
    20    10    11 1   
    21    11    12 1   
    22    11    13 1   
    23    11    14 1   
    24    15    16 1   
    25    15    30 1   
    26    16    17 1   
    27    16    19 1   
    28    16    31 1   
    29    17    18 1   
    30    17    20 1   
    31    19    21 1   
    32    19    31 1   
    33    21    27 1   
@<TRIPOS>SUBSTRUCTURE
     1 FOO         1 TEMP              0 ****  ****    0 ROOT
