@<TRIPOS>MOLECULE
molecule
   31    31     1     0     0
SMALL
bcc


@<TRIPOS>ATOM
      1 N1           0.0000     0.0000     0.0000 nb         1 FOO      -0.709000
      2 C2           1.3520     0.0000     0.0000 ca         1 FOO       0.312600
      3 C2A          2.0030     0.0000    -1.3450 c3         1 FOO      -0.125400
      4 C3           2.1280     0.0000     1.1480 ca         1 FOO      -0.023200
      5 O3           3.4850     0.0010     1.0670 oh         1 FOO      -0.513100
      6 C4           1.4660     0.0010     2.3620 ca         1 FOO      -0.012800
      7 C5           0.0840     0.0010     2.4160 ca         1 FOO      -0.110600
      8 C6          -0.6010     0.0000     1.2110 ca         1 FOO       0.369200
      9 C5A         -0.6820     0.0000     3.6950 c3         1 FOO       0.246700
     10 O4P         -0.9240    -1.3420     4.1010 os         1 FOO      -0.571200
     11 P           -1.7430    -1.5930     5.4710 p5         1 FOO       1.149900
     12 O1P         -3.0910    -0.7210     5.2790 o          1 FOO      -0.901500
     13 O2P         -1.9570    -3.0340     5.8300 o          1 FOO      -0.901500
     14 O3P         -0.8990    -0.7380     6.5530 o          1 FOO      -0.901500
     15 N            3.7640    -2.1310     6.1620 n2         1 FOO      -0.836100
     16 CA           3.4030    -1.0620     5.5310 ce         1 FOO       0.473600
     17 C            3.8040     0.2590     6.1120 c          1 FOO       0.818300
     18 OXT          2.8490     0.6770     6.9540 o          1 FOO      -0.824800
     19 CB           2.6270    -1.1050     4.2690 ce         1 FOO      -0.189600
     20 O            4.8510     0.8030     5.8290 o          1 FOO      -0.824800
     21 C7           2.2460     0.0000     3.6130 cf         1 FOO      -0.120200
     22 H6          -1.6840     0.0000     1.2410 h4         1 FOO       0.023100
     23 H2A1         1.2470    -0.1170    -2.1120 hc         1 FOO       0.024033
     24 H2A2         2.7080    -0.8200    -1.4050 hc         1 FOO       0.024033
     25 H2A3         2.5260     0.9370    -1.4930 hc         1 FOO       0.024033
     26 H3           3.7920     0.8830     0.9370 ho         1 FOO       0.395000
     27 H7           2.5210     0.9630     4.0280 ha         1 FOO       0.151000
     28 H5A1        -0.1080     0.5110     4.4600 h1         1 FOO       0.053700
     29 H5A2        -1.6270     0.5100     3.5510 h1         1 FOO       0.053700
     30 H            3.5170    -3.0320     5.8030 hn         1 FOO       0.337400
     31 HB           2.3510    -2.0730     3.8680 ha         1 FOO       0.107000
@<TRIPOS>BOND
     1     1     2 ar
     2     1     8 ar
     3     2     3 1
     4     2     4 ar
     5     3    23 1
     6     3    24 1
     7     3    25 1
     8     4     5 1
     9     4     6 ar
    10     5    26 1
    11     6     7 ar
    12     6    21 1
    13     7     8 ar
    14     7     9 1
    15     8    22 1
    16     9    10 1
    17     9    28 1
    18     9    29 1
    19    10    11 1
    20    11    12 1
    21    11    13 1
    22    11    14 1
    23    15    16 2
    24    15    30 1
    25    16    17 1
    26    16    19 1
    27    17    18 1
    28    17    20 1
    29    19    21 2
    30    19    31 1
    31    21    27 1
@<TRIPOS>SUBSTRUCTURE
     1 FOO         1 TEMP              0 ****  ****    0 ROOT
