@<TRIPOS>MOLECULE
FOP
   15    14     1     0     0
SMALL
bcc


@<TRIPOS>ATOM
      1 N4           0.0000     0.0000     0.0000 nz         1 FOP       0.090400
      2 C5           1.4690     0.0000     0.0000 c3         1 FOP      -0.057200
      3 C6           1.9790     0.0000     1.4430 c3         1 FOP       0.180100
      4 C7           3.5080     0.0000     1.4430 c3         1 FOP      -0.015100
      5 O7           1.5020     1.1660     2.1170 oh         1 FOP      -0.604800
      6 H41         -0.3340    -0.7340     0.5930 hn         1 FOP       0.225133
      7 H42         -0.3340     0.8810     0.3390 hn         1 FOP       0.225133
      8 H43         -0.3340    -0.1470    -0.9320 hn         1 FOP       0.225133
      9 H51          1.8300    -0.8850    -0.5110 hx         1 FOP       0.092200
     10 H52          1.8300     0.8850    -0.5110 hx         1 FOP       0.092200
     11 H6           1.6180    -0.8850     1.9540 h1         1 FOP       0.015700
     12 H71          3.8690     0.9170     0.9920 hc         1 FOP       0.032033
     13 H72          3.8700    -0.0680     2.4620 hc         1 FOP       0.032033
     14 H73          3.8690    -0.8480     0.8740 hc         1 FOP       0.032033
     15 HO7          1.4580     0.9980     3.0430 ho         1 FOP       0.436000
@<TRIPOS>BOND
     1     1     2 1   
     2     1     6 1   
     3     1     7 1   
     4     1     8 1   
     5     2     3 1   
     6     2     9 1   
     7     2    10 1   
     8     3     4 1   
     9     3     5 1   
    10     3    11 1   
    11     4    12 1   
    12     4    13 1   
    13     4    14 1   
    14     5    15 1   
@<TRIPOS>SUBSTRUCTURE
     1 FOP         1 TEMP              0 ****  ****    0 ROOT
