@<TRIPOS>MOLECULE
molecule
   31    31     1     0     0
SMALL
bcc


@<TRIPOS>ATOM
      1 CH3          0.0000     0.0000     0.0000 c3         1 FOQ      -0.166100
      2 O2           1.4730     0.0020    -2.3940 oh         1 FOQ      -0.402100
      3 N1           2.1820     0.0020    -1.1670 n          1 FOQ      -0.359300
      4 C1           1.5080     0.0000     0.0000 c          1 FOQ       0.668100
      5 O1           2.1140     0.0000     1.0500 o          1 FOQ      -0.588100
      6 C2           3.6460     0.0030    -1.1670 c3         1 FOQ       0.095000
      7 C3           4.1570    -1.3910    -0.7940 c3         1 FOQ      -0.058400
      8 C4           5.6820    -1.4250    -0.9180 c3         1 FOQ      -0.161600
      9 PA1          6.2770    -3.1240    -0.6310 p5         1 FOQ       1.012700
     10 OP1          5.6700    -4.1030    -1.7560 o          1 FOQ      -0.892500
     11 OP2          7.7550    -3.1470    -0.7020 o          1 FOQ      -0.892500
     12 OP3          5.8010    -3.6210     0.8250 o          1 FOQ      -0.892500
     13 CG           6.2900    -0.5000     0.1040 ca         1 FOQ       0.044700
     14 CD1          7.3150     0.3660    -0.2430 ca         1 FOQ      -0.236800
     15 CD2          5.8330    -0.4910     1.4130 ca         1 FOQ      -0.236800
     16 CE1          7.8480     1.2000     0.7210 ca         1 FOQ       0.378700
     17 CE2          6.4150     0.3710     2.3230 ca         1 FOQ       0.378700
     18 NZ           7.3930     1.1770     1.9590 nb         1 FOQ      -0.763000
     19 H1          -0.3610    -0.8700    -0.5350 hc         1 FOQ       0.047700
     20 H2          -0.3610    -0.0280     1.0210 hc         1 FOQ       0.047700
     21 H3          -0.3610     0.8980    -0.4860 hc         1 FOQ       0.047700
     22 H4           1.5980     0.8280    -2.8290 ho         1 FOQ       0.377000
     23 H5           4.0070     0.2680    -2.1530 h1         1 FOQ       0.047700
     24 H6           4.0070     0.7250    -0.4440 h1         1 FOQ       0.047700
     25 H7           3.8720    -1.6190     0.2260 hc         1 FOQ       0.075700
     26 H8           3.7240    -2.1250    -1.4630 hc         1 FOQ       0.075700
     27 H9           5.9700    -1.1050    -1.9120 hc         1 FOQ       0.042700
     28 H12          7.6940     0.3890    -1.2580 ha         1 FOQ       0.149000
     29 H13          5.0300    -1.1510     1.7190 ha         1 FOQ       0.149000
     30 H14          8.6510     1.8780     0.4590 h4         1 FOQ      -0.017400
     31 H15          6.0650     0.3820     3.3480 h4         1 FOQ      -0.017400
@<TRIPOS>BOND
     1    11     9 1
     2    12     9 1
     3     9    10 1
     4     9     8 1
     5     7     8 1
     6     7     6 1
     7     2     3 1
     8     8    13 1
     9     6     3 1
    10     3     4 1
    11    13    14 ar
    12    13    15 ar
    13    14    16 ar
    14     4     5 2
    15     4     1 1
    16    15    17 ar
    17    16    18 ar
    18    17    18 ar
    19     1    19 1
    20     1    20 1
    21     1    21 1
    22     2    22 1
    23     6    23 1
    24     6    24 1
    25     7    25 1
    26     7    26 1
    27     8    27 1
    28    14    28 1
    29    15    29 1
    30    16    30 1
    31    17    31 1
@<TRIPOS>SUBSTRUCTURE
     1 FOQ         1 TEMP              0 ****  ****    0 ROOT
