@<TRIPOS>MOLECULE
molecule
    4     3     1     0     0
SMALL
bcc


@<TRIPOS>ATOM
      1 C            0.0000     0.0000     0.0000 c          1 FOR       0.572700
      2 O            1.2070     0.0000     0.0000 o          1 FOR      -0.515100
      3 H1          -0.5420     0.0000     0.9380 h4         1 FOR      -0.028800
      4 H2          -0.5420     0.0000    -0.9380 h4         1 FOR      -0.028800
@<TRIPOS>BOND
     1     1     2 2
     2     1     3 1
     3     1     4 1
@<TRIPOS>SUBSTRUCTURE
     1 FOR         1 TEMP              0 ****  ****    0 ROOT
