@<TRIPOS>MOLECULE
FOS
   26    26     1     0     0
SMALL
bcc


@<TRIPOS>ATOM
      1 C1           0.0000     0.0000     0.0000 ca         1 FOS      -0.073300
      2 C2           1.3820     0.0000     0.0000 ca         1 FOS      -0.079000
      3 C3           2.0730     0.0000     1.1970 ca         1 FOS      -0.122000
      4 C4           1.3820     0.0010     2.3930 ca         1 FOS      -0.126000
      5 C5           0.0010     0.0020     2.3940 ca         1 FOS      -0.122000
      6 C6          -0.6910     0.0070     1.1970 ca         1 FOS      -0.079000
      7 C           -0.7530     0.0000    -1.3050 c3         1 FOS       0.295700
      8 O           -0.9960    -1.3680    -1.7250 os         1 FOS      -0.459900
      9 C'          -1.6570    -1.6130    -2.8700 c          1 FOS       0.617100
     10 O'          -2.0530    -0.6900    -3.5530 o          1 FOS      -0.668000
     11 N           -1.8830    -2.8840    -3.2580 ns         1 FOS      -0.022900
     12 CM          -2.6030    -3.1510    -4.5060 c3         1 FOS      -0.008200
     13 P           -1.4140    -3.2630    -5.8830 p5         1 FOS       0.421700
     14 O1P         -0.6770    -1.9850    -6.0030 o          1 FOS      -0.739167
     15 O2P         -2.2060    -3.5570    -7.2530 o          1 FOS      -0.739167
     16 O3P         -0.3730    -4.4580    -5.5980 o          1 FOS      -0.739167
     17 H2           1.9240    -0.0030    -0.9380 ha         1 FOS       0.113000
     18 H3           3.1560    -0.0010     1.1970 ha         1 FOS       0.088500
     19 H4           1.9240    -0.0010     3.3310 ha         1 FOS       0.084000
     20 H5          -0.5400     0.0050     3.3320 ha         1 FOS       0.088500
     21 H6          -1.7740     0.0070     1.1970 ha         1 FOS       0.113000
     22 H1          -1.7000     0.5110    -1.1750 h1         1 FOS       0.006200
     23 H2A         -0.1680     0.5110    -2.0600 h1         1 FOS       0.006200
     24 HN          -1.5920    -3.6440    -2.6760 hn         1 FOS       0.126500
     25 HM1         -3.1430    -4.0860    -4.4180 h1         1 FOS       0.008700
     26 HM2         -3.3030    -2.3470    -4.6980 h1         1 FOS       0.008700
@<TRIPOS>BOND
     1     1     2 ar  
     2     1     6 ar  
     3     1     7 1   
     4     2     3 ar  
     5     2    17 1   
     6     3     4 ar  
     7     3    18 1   
     8     4     5 ar  
     9     4    19 1   
    10     5     6 ar  
    11     5    20 1   
    12     6    21 1   
    13     7     8 1   
    14     7    22 1   
    15     7    23 1   
    16     8     9 1   
    17     9    10 2   
    18     9    11 1   
    19    11    12 1   
    20    11    24 1   
    21    12    13 1   
    22    12    25 1   
    23    12    26 1   
    24    13    14 1   
    25    13    15 1   
    26    13    16 1   
@<TRIPOS>SUBSTRUCTURE
     1 FOS         1 TEMP              0 ****  ****    0 ROOT
