@<TRIPOS>MOLECULE
FOT
   14    14     1     0     0
SMALL
bcc


@<TRIPOS>ATOM
      1 C2           0.0000     0.0000     0.0000 c          1 FOT       0.554500
      2 C6          -0.0840     0.0050     2.3360 c          1 FOT       0.603700
      3 C5           1.3870     0.0000     2.3670 cc         1 FOT      -0.054700
      4 O2          -0.5910     0.0010    -1.0630 o          1 FOT      -0.754500
      5 N3           1.3420     0.0000     0.0000 ns         1 FOT       0.063900
      6 N1          -0.7100     0.0050     1.1420 ns         1 FOT      -0.132500
      7 O6          -0.7240     0.0050     3.3710 o          1 FOT      -0.685500
      8 F5           2.0560    -0.0010     3.5420 f          1 FOT      -0.118500
      9 C4           2.0580     0.0000     1.1830 cd         1 FOT      -0.155600
     10 C41          3.5360    -0.0050     1.1620 c          1 FOT       0.964800
     11 O42          4.1580    -0.0100     2.2050 o          1 FOT      -0.847300
     12 O41          4.1930    -0.0050    -0.0140 o          1 FOT      -0.847300
     13 HN3          1.8340    -0.0000    -0.8720 hn         1 FOT       0.217500
     14 HN1         -1.7100     0.0090     1.1050 hn         1 FOT       0.191500
@<TRIPOS>BOND
     1     1     4 2   
     2     1     5 1   
     3     1     6 1   
     4     2     3 1   
     5     2     6 1   
     6     2     7 2   
     7     3     8 1   
     8     3     9 2   
     9     5     9 1   
    10     5    13 1   
    11     6    14 1   
    12     9    10 1   
    13    10    11 1   
    14    10    12 1   
@<TRIPOS>SUBSTRUCTURE
     1 FOT         1 TEMP              0 ****  ****    0 ROOT
