@<TRIPOS>MOLECULE
molecule
   17    17     1     0     0
SMALL
bcc


@<TRIPOS>ATOM
      1 O1           0.0000     0.0000     0.0000 oh         1 FOU      -0.599800
      2 C1           1.4280     0.0000     0.0000 c3         1 FOU       0.289500
      3 N1           1.9180     0.0000     1.3790 ns         1 FOU      -0.605900
      4 C2           2.1670    -1.1460     2.0310 c          1 FOU       0.833500
      5 O2           2.5630    -1.0900     3.1790 o          1 FOU      -0.686500
      6 N2           1.9980    -2.3500     1.4660 ns         1 FOU      -0.605900
      7 C3           1.5130    -2.4850     0.0920 c3         1 FOU       0.289500
      8 O3           2.0710    -3.6620    -0.4990 oh         1 FOU      -0.599800
      9 C4           1.9410    -1.2540    -0.7170 c3         1 FOU       0.155600
     10 F1           1.3910    -1.3200    -2.0010 f          1 FOU      -0.220300
     11 H1          -0.3140     0.8570    -0.2350 ho         1 FOU       0.416500
     12 H2           1.7950     0.8820    -0.5120 h2         1 FOU       0.063700
     13 H3           2.0700     0.8720     1.8450 hn         1 FOU       0.349500
     14 H4           2.2080    -3.1740     1.9950 hn         1 FOU       0.349500
     15 H5           0.4320    -2.5550     0.0970 h2         1 FOU       0.063700
     16 H6           1.4180    -4.3420    -0.5210 ho         1 FOU       0.416500
     17 H7           3.0220    -1.2190    -0.7790 h1         1 FOU       0.090700
@<TRIPOS>BOND
     1     5     4 2
     2     6     4 1
     3     6     7 1
     4     4     3 1
     5     8     7 1
     6     7     9 1
     7     3     2 1
     8     9     2 1
     9     9    10 1
    10     2     1 1
    11     1    11 1
    12     2    12 1
    13     3    13 1
    14     6    14 1
    15     7    15 1
    16     8    16 1
    17     9    17 1
@<TRIPOS>SUBSTRUCTURE
     1 FOU         1 TEMP              0 ****  ****    0 ROOT
