@<TRIPOS>MOLECULE
FOZ
   57    59     1     0     0
SMALL
bcc


@<TRIPOS>ATOM
      1 C           0.0740   -0.4370    0.0560 c         1 FOZ      0.580700
      2 N           1.3820    0.2800    0.1170 n4        1 FOZ     -0.661800
      3 O          -0.3340   -1.0050    1.0670 o         1 FOZ     -0.479100
      4 N1         -2.0310   -3.6250   -9.4440 na        1 FOZ     -0.720000
      5 O1          3.2030    1.9040    2.8300 o         1 FOZ     -0.762800
      6 C2         -2.6630   -4.8620   -9.2060 cc        1 FOZ      0.841100
      7 O2          2.1290    2.6710    0.9870 o         1 FOZ     -0.762800
      8 N3         -3.7080   -5.0030   -8.3890 nd        1 FOZ     -0.724100
      9 O3         -5.5990   -0.3510   -5.9340 o         1 FOZ     -0.616100
     10 C4         -4.1980   -3.9070   -7.6690 c         1 FOZ      0.721700
     11 O4         -5.1220   -4.0830   -6.8550 o         1 FOZ     -0.568100
     12 N5         -4.0610   -1.4130   -7.2470 n         1 FOZ     -0.381000
     13 C6         -3.2210   -0.2270   -7.2610 c3        1 FOZ      0.043700
     14 C7         -2.4940   -0.0690   -8.6190 c3        1 FOZ      0.164800
     15 N8         -1.8270   -1.2560   -9.0950 nh        1 FOZ     -0.708000
     16 C9         -2.1730   -0.1950   -6.1160 c3        1 FOZ      0.208800
     17 CA          2.0830    0.2860    1.4350 c3        1 FOZ     -0.070500
     18 CB          3.3170   -0.5980    1.4740 c3        1 FOZ     -0.086400
     19 CD          3.1080   -2.5530   -0.0690 c         1 FOZ      0.651100
     20 CG          3.0290   -2.0790    1.3470 c3        1 FOZ     -0.148400
     21 CT          2.5280    1.7900    1.7930 c         1 FOZ      0.936600
     22 N10        -2.7780   -0.0940   -4.8210 nh        1 FOZ     -0.768600
     23 C11        -0.6210   -0.3630   -1.2320 ca        1 FOZ     -0.269600
     24 C12        -2.0230   -0.2480   -1.2220 ca        1 FOZ     -0.015500
     25 C13        -0.6430   -0.3600   -3.6510 ca        1 FOZ     -0.228500
     26 C14        -2.0580   -0.2100   -3.6590 ca        1 FOZ      0.256600
     27 C15        -2.7330   -0.1670   -2.4020 ca        1 FOZ     -0.228500
     28 C16         0.0530   -0.4350   -2.4580 ca        1 FOZ     -0.015500
     29 C4A        -3.5840   -2.5600   -7.9080 cc        1 FOZ     -0.144600
     30 C8A        -2.4980   -2.4760   -8.7850 cd        1 FOZ      0.251000
     31 OE1         2.7530   -1.9740   -1.1090 o         1 FOZ     -0.618000
     32 OE2         3.6310   -3.7950   -0.2210 oh        1 FOZ     -0.586100
     33 H6         -3.8990    0.6750   -7.1400 h1        1 FOZ      0.104700
     34 HA          1.3530   -0.0270    2.2340 hx        1 FOZ      0.109700
     35 HN          2.0040   -0.1090   -0.6040 hn        1 FOZ      0.478300
     36 HN10       -3.7730   -0.0260   -4.7670 hn        1 FOZ      0.470800
     37 H12        -2.5550   -0.2220   -0.2550 ha        1 FOZ      0.151500
     38 H13        -0.0860   -0.4190   -4.5980 ha        1 FOZ      0.146500
     39 H15        -3.8300   -0.0700   -2.3710 ha        1 FOZ      0.146500
     40 H16         1.1460   -0.5900   -2.4930 ha        1 FOZ      0.151500
     41 HNA2        3.6420   -4.0390   -1.1630 ho        1 FOZ      0.450000
     42 HNAA       -1.8430   -5.8740  -10.7850 hn        1 FOZ      0.421800
     43 H7         -3.2610    0.2160   -9.3970 h1        1 FOZ      0.077700
     44 H7A        -1.7470    0.7690   -8.5420 h1        1 FOZ      0.077700
     45 H9         -1.5260   -1.1180   -6.1710 h1        1 FOZ      0.044200
     46 H9A        -1.5080    0.7030   -6.2850 h1        1 FOZ      0.044200
     47 HB          4.0550   -0.2760    0.6920 hc        1 FOZ      0.094200
     48 HBA         3.7950   -0.3960    2.4760 hc        1 FOZ      0.094200
     49 HG          3.7620   -2.6670    1.9640 hc        1 FOZ      0.096700
     50 HGA         1.9970   -2.3180    1.7270 hc        1 FOZ      0.096700
     51 HN1        -1.2390   -3.5570  -10.0430 hn        1 FOZ      0.461800
     52 HN8        -0.8590   -1.2910   -8.8270 hn        1 FOZ      0.390800
     53 HP1        -5.9880   -2.2130   -6.7750 h5        1 FOZ      0.107200
     54 CP1        -5.3070   -1.3450   -6.6200 c         1 FOZ      0.677900
     55 H2          1.2110    1.2930   -0.1110 hn        1 FOZ      0.478300
     56 HA23       -2.5790   -6.8470   -9.6450 hn        1 FOZ      0.421800
     57 NA2        -2.0840   -5.9970   -9.8250 nh        1 FOZ     -0.886800
@<TRIPOS>BOND
     1    1    2 1   
     2    1    3 2   
     3    1   23 1   
     4    2   17 1   
     5    2   35 1   
     6    2   55 1   
     7    4    6 1   
     8    4   30 1   
     9    4   51 1   
    10    5   21 1   
    11    6    8 2   
    12    6   57 1   
    13    7   21 1   
    14    8   10 1   
    15    9   54 2   
    16   10   11 2   
    17   10   29 1   
    18   12   13 1   
    19   12   29 1   
    20   12   54 1   
    21   13   14 1   
    22   13   16 1   
    23   13   33 1   
    24   14   15 1   
    25   14   43 1   
    26   14   44 1   
    27   15   30 1   
    28   15   52 1   
    29   16   22 1   
    30   16   45 1   
    31   16   46 1   
    32   17   18 1   
    33   17   21 1   
    34   17   34 1   
    35   18   20 1   
    36   18   47 1   
    37   18   48 1   
    38   19   20 1   
    39   19   31 2   
    40   19   32 1   
    41   20   49 1   
    42   20   50 1   
    43   22   26 1   
    44   22   36 1   
    45   23   24 ar  
    46   23   28 ar  
    47   24   27 ar  
    48   24   37 1   
    49   25   26 ar  
    50   25   28 ar  
    51   25   38 1   
    52   26   27 ar  
    53   27   39 1   
    54   28   40 1   
    55   29   30 2   
    56   32   41 1   
    57   42   57 1   
    58   53   54 1   
    59   56   57 1   
@<TRIPOS>SUBSTRUCTURE
     1 FOZ         1 TEMP              0 ****  ****    0 ROOT
