@<TRIPOS>MOLECULE
molecule
   56    58     1     0     0
SMALL
bcc


@<TRIPOS>ATOM
      1 C            0.0000     0.0000     0.0000 c          1 FOZ       0.610700
      2 N            1.3480     0.0000     0.0000 ns         1 FOZ      -0.502900
      3 O           -0.6080     0.0040     1.0540 o          1 FOZ      -0.620100
      4 N1          -1.9720    -3.8500    -8.5280 na         1 FOZ      -0.691000
      5 O1           1.7620     2.3310     1.1250 o          1 FOZ      -0.795800
      6 C2          -2.6870    -4.9290    -8.1040 cc         1 FOZ       0.666100
      7 O2           2.8660     1.6600     2.9190 o          1 FOZ      -0.795800
      8 N3          -3.7900    -4.7890    -7.4020 nd         1 FOZ      -0.671100
      9 O3          -5.6310     0.1560    -6.3810 o          1 FOZ      -0.560100
     10 C4          -4.2540    -3.5710    -7.0770 c          1 FOZ       0.717700
     11 O4          -5.2810    -3.4560    -6.4230 o          1 FOZ      -0.537100
     12 N5          -4.0100    -1.1350    -7.1740 n          1 FOZ      -0.371000
     13 C6          -3.0840     0.0000    -7.3120 c3         1 FOZ       0.086700
     14 C7          -2.3300    -0.1640    -8.6400 c3         1 FOZ       0.225800
     15 N8          -1.6760    -1.4840    -8.6320 nu         1 FOZ      -0.809000
     16 C9          -2.0880     0.0000    -6.1490 c3         1 FOZ       0.180800
     17 CA           2.0810     0.0000     1.2690 c3         1 FOZ       0.044700
     18 CB           3.4680    -0.6080     1.0550 c3         1 FOZ      -0.066400
     19 CD           4.6910    -2.6820     0.4610 c          1 FOZ       0.888600
     20 CG           3.3240    -2.0820     0.6710 c3         1 FOZ      -0.176400
     21 CT           2.2250     1.4160     1.7660 c          1 FOZ       0.897600
     22 N10         -2.8200    -0.0000    -4.8800 nu         1 FOZ      -0.694600
     23 C11         -0.7390    -0.0010    -1.2770 ca         1 FOZ      -0.136600
     24 C12         -2.1360    -0.0010    -1.2780 ca         1 FOZ      -0.059500
     25 C13         -2.8210    -0.0010    -2.4710 ca         1 FOZ      -0.201000
     26 C14         -2.1240    -0.0000    -3.6760 ca         1 FOZ       0.052600
     27 C15         -0.7330     0.0000    -3.6790 ca         1 FOZ      -0.201000
     28 C16         -0.0410     0.0060    -2.4890 ca         1 FOZ      -0.059500
     29 C4A         -3.5450    -2.4260    -7.4950 cc         1 FOZ      -0.150600
     30 C8A         -2.3960    -2.5840    -8.2180 cd         1 FOZ       0.318000
     31 OE1          4.8120    -3.9740     0.1160 o          1 FOZ      -0.817800
     32 OE2          5.6790    -2.0000     0.6050 o          1 FOZ      -0.817800
     33 H6          -3.6430     0.9280    -7.3220 h1         1 FOZ       0.124700
     34 HA           1.5380    -0.5860     2.0000 h1         1 FOZ       0.066700
     35 HN           1.3820    -0.4430    -0.8970 hn         1 FOZ       0.287500
     36 HN10        -3.0640    -0.8090    -4.3430 hn         1 FOZ       0.407800
     37 H12         -2.6790    -0.0010    -0.3400 ha         1 FOZ       0.158000
     38 H13         -3.9050    -0.0010    -2.4730 ha         1 FOZ       0.125000
     39 H15         -0.1940     0.0050    -4.6180 ha         1 FOZ       0.125000
     40 H16          1.0420     0.0060    -2.4910 ha         1 FOZ       0.158000
     41 HNA2        -2.8700    -6.8670    -8.0270 hn         1 FOZ       0.432133
     42 HNAA        -2.2170    -6.2950    -9.4120 hn         1 FOZ       0.432133
     43 H7          -3.0290    -0.1070    -9.4660 h1         1 FOZ       0.069700
     44 H7A         -1.5810     0.6140    -8.7330 h1         1 FOZ       0.069700
     45 H9          -1.4650    -0.8840    -6.2070 h1         1 FOZ       0.044700
     46 H9A         -1.4660     0.8850    -6.2070 h1         1 FOZ       0.044700
     47 HB           4.0430    -0.5270     1.9700 hc         1 FOZ       0.072200
     48 HBA          3.9770    -0.0760     0.2610 hc         1 FOZ       0.072200
     49 HG           2.8150    -2.6140     1.4650 hc         1 FOZ       0.025700
     50 HGA          2.7500    -2.1630    -0.2440 hc         1 FOZ       0.025700
     51 HN1         -1.1360    -3.9820    -9.0610 hn         1 FOZ       0.447800
     52 HN8         -0.7240    -1.5810    -8.9230 hn         1 FOZ       0.445800
     53 HP1         -5.9880    -1.7590    -6.7900 h5         1 FOZ       0.081200
     54 CP1         -5.2750    -0.9440    -6.7490 c          1 FOZ       0.657900
     55 HA23        -1.3310    -6.3270    -8.0340 hn         1 FOZ       0.432133
     56 NA2         -2.2460    -6.1890    -8.4170 nz         1 FOZ      -0.758600
@<TRIPOS>BOND
     1     3     1 2
     2     1     2 1
     3     1    23 1
     4    17     2 1
     5     2    35 1
     6     6     4 1
     7     4    51 1
     8     4    30 1
     9     5    21 1
    10    56     6 1
    11     8     6 2
    12    21     7 1
    13     8    10 1
    14     9    54 2
    15    11    10 2
    16    10    29 1
    17    29    12 1
    18    54    12 1
    19    12    13 1
    20    16    13 1
    21    13    14 1
    22    13    33 1
    23    15    14 1
    24    14    44 1
    25    14    43 1
    26    30    15 1
    27    15    52 1
    28    22    16 1
    29    46    16 1
    30    16    45 1
    31    34    17 1
    32    21    17 1
    33    17    18 1
    34    20    18 1
    35    18    47 1
    36    18    48 1
    37    31    19 1
    38    19    20 1
    39    19    32 1
    40    49    20 1
    41    20    50 1
    42    26    22 1
    43    22    36 1
    44    23    24 ar
    45    23    28 ar
    46    37    24 1
    47    24    25 ar
    48    25    38 1
    49    25    26 ar
    50    27    26 ar
    51    28    27 ar
    52    27    39 1
    53    40    28 1
    54    29    30 2
    55    41    56 1
    56    56    42 1
    57    54    53 1
    58    55    56 1
@<TRIPOS>SUBSTRUCTURE
     1 FOZ         1 TEMP              0 ****  ****    0 ROOT
