@<TRIPOS>MOLECULE
FP0
   46    49     1     0     0
SMALL
bcc


@<TRIPOS>ATOM
      1 C2         -0.1350    0.0020    0.3930 c3        1 FP0      0.141100
      2 C6          1.5700    1.4680    2.1780 c3        1 FP0     -0.088000
      3 C5          1.9060    0.0580    1.6170 c3        1 FP0     -0.016000
      4 C4          1.0300   -1.0370    2.2850 c3        1 FP0     -0.088400
      5 C3         -0.2660   -1.1170    1.4580 c3        1 FP0      0.114100
      6 C11         0.0410    1.6930    2.1010 c3        1 FP0      0.176300
      7 C10        -0.3510    3.1290    2.2490 c2        1 FP0     -0.174200
      8 C9          0.4940    4.1570    2.1080 c2        1 FP0     -0.094400
      9 C8          1.9330    3.9680    1.7780 c3        1 FP0     -0.047200
     10 C12         1.3780    0.0270    0.1780 cx        1 FP0      0.032800
     11 C13         2.0660    0.4450   -1.0650 cx        1 FP0      0.083400
     12 O4         -2.6990   -1.9730    0.8900 o         1 FP0     -0.539000
     13 C17        -2.5960   -1.3780    1.9640 c         1 FP0      0.638100
     14 C18        -3.6580   -1.0810    2.9650 c3        1 FP0     -0.150100
     15 O3         -1.3680   -0.9020    2.3440 os        1 FP0     -0.434900
     16 O2          1.9150   -0.9440   -0.7350 os        1 FP0     -0.395600
     17 O1         -0.5560    1.2730    0.8570 os        1 FP0     -0.390600
     18 C14         3.3650   -0.3110    1.7270 c3        1 FP0     -0.090100
     19 C7          2.2640    2.5540    1.3440 c3        1 FP0     -0.074400
     20 C15         2.0630    1.6360    3.6280 c3        1 FP0      0.134400
     21 O12         1.4550    0.8000    4.5890 oh        1 FP0     -0.595800
     22 C16         0.0630    5.5650    2.2810 c3        1 FP0     -0.062900
     23 H2         -0.7430   -0.1890   -0.5260 h1        1 FP0      0.109700
     24 H4          0.8160   -0.8110    3.3560 hc        1 FP0      0.077700
     25 H4A         1.5610   -2.0200    2.2350 hc        1 FP0      0.077700
     26 H3         -0.3740   -2.1100    0.9460 h1        1 FP0      0.091700
     27 H11        -0.4510    1.0880    2.9190 h1        1 FP0      0.057700
     28 H10        -1.4200    3.2860    2.4620 ha        1 FP0      0.133000
     29 H8          2.5530    4.2600    2.6690 hc        1 FP0      0.050700
     30 H8A         2.2140    4.6720    0.9480 hc        1 FP0      0.050700
     31 H13         3.1090    0.8110   -1.0310 h1        1 FP0      0.080700
     32 H13A        1.4820    0.7790   -1.9420 h1        1 FP0      0.080700
     33 H18        -4.2910   -0.2450    2.5760 hc        1 FP0      0.076033
     34 H18A       -3.2140   -0.7810    3.9440 hc        1 FP0      0.076033
     35 H18B       -4.2940   -1.9890    3.1020 hc        1 FP0      0.076033
     36 H14         3.5630   -1.2320    1.1230 hc        1 FP0      0.047367
     37 H14A        3.6330   -0.5190    2.7910 hc        1 FP0      0.047367
     38 H14B        4.0220    0.5040    1.3400 hc        1 FP0      0.047367
     39 H7          1.9440    2.4370    0.2750 hc        1 FP0      0.051700
     40 H7A         3.3750    2.4140    1.3920 hc        1 FP0      0.051700
     41 H15         3.1550    1.3730    3.6820 h1        1 FP0      0.051700
     42 H15A        1.9260    2.7090    3.9370 h1        1 FP0      0.051700
     43 HO12        0.5430    1.0970    4.6980 ho        1 FP0      0.401000
     44 H16         0.7140    6.0790    3.0320 hc        1 FP0      0.044700
     45 H16A        0.1520    6.1130    1.3090 hc        1 FP0      0.044700
     46 H16B       -0.9970    5.6310    2.6260 hc        1 FP0      0.044700
@<TRIPOS>BOND
     1    1    5 1   
     2    1   10 1   
     3    1   17 1   
     4    1   23 1   
     5    2    3 1   
     6    2    6 1   
     7    2   19 1   
     8    2   20 1   
     9    3    4 1   
    10    3   10 1   
    11    3   18 1   
    12    4    5 1   
    13    4   24 1   
    14    4   25 1   
    15    5   15 1   
    16    5   26 1   
    17    6    7 1   
    18    6   17 1   
    19    6   27 1   
    20    7    8 2   
    21    7   28 1   
    22    8    9 1   
    23    8   22 1   
    24    9   19 1   
    25    9   29 1   
    26    9   30 1   
    27   10   11 1   
    28   10   16 1   
    29   11   16 1   
    30   11   31 1   
    31   11   32 1   
    32   12   13 2   
    33   13   14 1   
    34   13   15 1   
    35   14   33 1   
    36   14   34 1   
    37   14   35 1   
    38   18   36 1   
    39   18   37 1   
    40   18   38 1   
    41   19   39 1   
    42   19   40 1   
    43   20   21 1   
    44   20   41 1   
    45   20   42 1   
    46   21   43 1   
    47   22   44 1   
    48   22   45 1   
    49   22   46 1   
@<TRIPOS>SUBSTRUCTURE
     1 FP0         1 TEMP              0 ****  ****    0 ROOT
