@<TRIPOS>MOLECULE
molecule
   46    49     1     0     0
SMALL
bcc


@<TRIPOS>ATOM
      1 C2           0.0000     0.0000     0.0000 c3         1 FP0       0.176100
      2 C6           1.4570     1.3840     2.0390 c3         1 FP0      -0.078000
      3 C5           1.8700     0.0000     1.5040 c3         1 FP0      -0.038000
      4 C4           0.8500    -1.0150     2.0870 c3         1 FP0      -0.096400
      5 C3          -0.3560    -1.0000     1.1280 c3         1 FP0       0.112100
      6 C11         -0.0380     1.5980     1.8040 c3         1 FP0       0.194300
      7 C10         -0.3970     3.0270     2.1080 c2         1 FP0      -0.174200
      8 C9           0.4670     3.9880     2.1720 c2         1 FP0      -0.062400
      9 C8           1.9440     3.8180     1.9670 c3         1 FP0      -0.037200
     10 C12          1.5390     0.0000     0.0000 cx         1 FP0       0.013800
     11 C13          2.3620     0.7570    -1.0210 cx         1 FP0       0.068400
     12 O4          -2.0310    -2.6720     2.2460 o          1 FP0      -0.550000
     13 C17         -2.3300    -1.5080     2.3640 c          1 FP0       0.624100
     14 C18         -3.5820    -1.1230     3.1080 c3         1 FP0      -0.140100
     15 O3          -1.5470    -0.5570     1.8310 os         1 FP0      -0.412900
     16 O2           2.3160    -0.6740    -0.9640 op         1 FP0      -0.364600
     17 O1          -0.4020     1.3050     0.4540 os         1 FP0      -0.393600
     18 C14          3.3240    -0.3560     1.8210 c3         1 FP0      -0.077100
     19 C7           2.2340     2.4720     1.2950 c3         1 FP0      -0.072400
     20 C15          1.7560     1.4640     3.5380 c3         1 FP0       0.148400
     21 O12          1.3730     2.7480     4.0330 oh         1 FP0      -0.595800
     22 C16         -0.0450     5.3740     2.4720 c3         1 FP0      -0.057900
     23 H2          -0.4250    -0.2700    -0.9590 h1         1 FP0       0.105700
     24 H4           0.5430    -0.7070     3.0790 hc         1 FP0       0.064200
     25 H4A          1.2880    -2.0050     2.1210 hc         1 FP0       0.064200
     26 H3          -0.5140    -1.9880     0.7130 h1         1 FP0       0.087700
     27 H11         -0.5950     0.9470     2.4670 h1         1 FP0       0.068700
     28 H10         -1.4390     3.2660     2.2820 ha         1 FP0       0.124000
     29 H8           2.4440     3.8520     2.9280 hc         1 FP0       0.058700
     30 H8A          2.3120     4.6180     1.3370 hc         1 FP0       0.058700
     31 H13          1.8050     1.2140    -1.8300 h1         1 FP0       0.088200
     32 H13A         3.2710     1.2130    -0.6490 h1         1 FP0       0.088200
     33 H18         -4.2220    -1.9910     3.2130 hc         1 FP0       0.070033
     34 H18A        -3.3180    -0.7480     4.0900 hc         1 FP0       0.070033
     35 H18B        -4.1080    -0.3530     2.5560 hc         1 FP0       0.070033
     36 H14          3.9640     0.4810     1.5700 hc         1 FP0       0.045367
     37 H14A         3.6180    -1.2220     1.2410 hc         1 FP0       0.045367
     38 H14B         3.4190    -0.5790     2.8770 hc         1 FP0       0.045367
     39 H7           3.2950     2.2620     1.3460 hc         1 FP0       0.049200
     40 H7A          1.9130     2.5060     0.2610 hc         1 FP0       0.049200
     41 H15          1.1990     0.6950     4.0590 h1         1 FP0       0.025700
     42 H15A         2.8170     1.3150     3.7030 h1         1 FP0       0.025700
     43 HO12         1.4140     2.7470     4.9750 ho         1 FP0       0.390000
     44 H16         -0.7340     5.3310     3.3060 hc         1 FP0       0.039700
     45 H16A         0.7870     6.0200     2.7230 hc         1 FP0       0.039700
     46 H16B        -0.5560     5.7660     1.6010 hc         1 FP0       0.039700
@<TRIPOS>BOND
     1     1     5 1
     2     1    10 1
     3     1    17 1
     4     2     3 1
     5     2     6 1
     6     2    19 1
     7     2    20 1
     8     3     4 1
     9     3    10 1
    10     3    18 1
    11     4     5 1
    12     5    15 1
    13     6     7 1
    14     6    17 1
    15     7     8 2
    16     8     9 1
    17     8    22 1
    18     9    19 1
    19    10    11 1
    20    10    16 1
    21    11    16 1
    22    12    13 2
    23    13    14 1
    24    13    15 1
    25    20    21 1
    26     1    23 1
    27     4    24 1
    28     4    25 1
    29     5    26 1
    30     6    27 1
    31     7    28 1
    32     9    29 1
    33     9    30 1
    34    11    31 1
    35    11    32 1
    36    14    33 1
    37    14    34 1
    38    14    35 1
    39    18    36 1
    40    18    37 1
    41    18    38 1
    42    19    39 1
    43    19    40 1
    44    20    41 1
    45    20    42 1
    46    21    43 1
    47    22    44 1
    48    22    45 1
    49    22    46 1
@<TRIPOS>SUBSTRUCTURE
     1 FP0         1 TEMP              0 ****  ****    0 ROOT
