@<TRIPOS>MOLECULE
molecule
   20    20     1     0     0
SMALL
bcc


@<TRIPOS>ATOM
      1 O1           0.0000     0.0000     0.0000 oh         1 FP1      -0.340300
      2 N2           1.4160     0.0000     0.0000 nu         1 FP1      -0.651500
      3 C6           2.1200     0.0000     1.2180 c2         1 FP1       0.038000
      4 C5           3.4610     0.1240     1.2200 cc         1 FP1       0.041000
      5 C4           4.2580    -0.0740     2.4470 cc         1 FP1      -0.144000
      6 C3           5.5600    -0.4250     2.2900 cd         1 FP1      -0.100000
      7 C2           6.1000    -0.5920     0.9420 cd         1 FP1      -0.249000
      8 C1           5.4150    -0.1600    -0.1290 cc         1 FP1       0.092000
      9 N1           4.1830     0.4450     0.0460 na         1 FP1      -0.580200
     10 C7           3.6510     1.3840    -0.9440 c3         1 FP1       0.222100
     11 H1          -0.3140    -0.7500    -0.4770 ho         1 FP1       0.388000
     12 H2           1.9150    -0.0520    -0.8660 hn         1 FP1       0.457800
     13 H6           1.6010    -0.2510     2.1360 h4         1 FP1       0.163000
     14 H4           3.8230     0.0580     3.4300 ha         1 FP1       0.137000
     15 H3           6.1550    -0.6810     3.1580 ha         1 FP1       0.128000
     16 HA           7.1060    -0.9700     0.8070 ha         1 FP1       0.133000
     17 HB           5.9300    -0.1150    -1.0810 h4         1 FP1       0.139000
     18 H7C1         2.8490     1.9620    -0.5000 h1         1 FP1       0.041700
     19 H7C2         3.2700     0.8340    -1.7960 h1         1 FP1       0.041700
     20 H7C3         4.4390     2.0520    -1.2690 h1         1 FP1       0.041700
@<TRIPOS>BOND
     1     1     2 1
     2     2     3 1
     3     3     4 2
     4     4     5 1
     5     4     9 1
     6     5     6 2
     7     6     7 1
     8     7     8 2
     9     8     9 1
    10     9    10 1
    11     1    11 1
    12     2    12 1
    13     3    13 1
    14     5    14 1
    15     6    15 1
    16     7    16 1
    17     8    17 1
    18    10    18 1
    19    10    19 1
    20    10    20 1
@<TRIPOS>SUBSTRUCTURE
     1 FP1         1 TEMP              0 ****  ****    0 ROOT
