@<TRIPOS>MOLECULE
FP2
   13    13     1     0     0
SMALL
bcc


@<TRIPOS>ATOM
      1 C1         -0.1020   -0.1220    0.0560 ca        1 FP2      0.098100
      2 C2          1.3110   -0.1630    0.0030 ca        1 FP2      0.034900
      3 C3          2.0540   -0.0870    1.1920 ca        1 FP2     -0.122000
      4 C4          1.3920    0.0270    2.4100 ca        1 FP2     -0.143000
      5 C5         -0.0030    0.0670    2.4580 ca        1 FP2     -0.108000
      6 C6         -0.7570   -0.0070    1.2910 ca        1 FP2     -0.138000
      7 F           1.9320   -0.2740   -1.1980 f         1 FP2     -0.146900
      8 O          -0.8880   -0.1910   -1.0690 oh        1 FP2     -0.490100
      9 H3          3.1530   -0.1190    1.1440 ha        1 FP2      0.150000
     10 H4          1.9750    0.0860    3.3410 ha        1 FP2      0.140000
     11 H5         -0.5150    0.1570    3.4280 ha        1 FP2      0.139000
     12 H6         -1.8550    0.0230    1.3140 ha        1 FP2      0.156000
     13 HO         -0.3020   -0.2680   -1.8380 ho        1 FP2      0.430000
@<TRIPOS>BOND
     1    1    2 ar  
     2    1    6 ar  
     3    1    8 1   
     4    2    3 ar  
     5    2    7 1   
     6    3    4 ar  
     7    3    9 1   
     8    4    5 ar  
     9    4   10 1   
    10    5    6 ar  
    11    5   11 1   
    12    6   12 1   
    13    8   13 1   
@<TRIPOS>SUBSTRUCTURE
     1 FP2         1 TEMP              0 ****  ****    0 ROOT
