@<TRIPOS>MOLECULE
molecule
   13    13     1     0     0
SMALL
bcc


@<TRIPOS>ATOM
      1 C1           0.0000     0.0000     0.0000 ca         1 FP2       0.068100
      2 C2           1.3890     0.0000     0.0000 ca         1 FP2       0.115900
      3 C3           2.0790     0.0000     1.1990 ca         1 FP2      -0.157000
      4 C4           1.3870     0.0000     2.3960 ca         1 FP2      -0.112000
      5 C5           0.0040     0.0000     2.3980 ca         1 FP2      -0.131000
      6 C6          -0.6910     0.0000     1.2030 ca         1 FP2      -0.134000
      7 F            2.0650    -0.0010    -1.1690 f          1 FP2      -0.130900
      8 O           -0.6810     0.0050    -1.1770 oh         1 FP2      -0.508100
      9 H3           3.1620    -0.0000     1.2000 ha         1 FP2       0.148000
     10 H4           1.9290     0.0000     3.3340 ha         1 FP2       0.138000
     11 H5          -0.5350     0.0000     3.3370 ha         1 FP2       0.137000
     12 H6          -1.7740     0.0000     1.2050 ha         1 FP2       0.146000
     13 HO          -0.9460    -0.8740    -1.3900 ho         1 FP2       0.421000
@<TRIPOS>BOND
     1     1     2 ar
     2     1     6 ar
     3     1     8 1
     4     2     3 ar
     5     2     7 1
     6     3     4 ar
     7     4     5 ar
     8     5     6 ar
     9     3     9 1
    10     4    10 1
    11     5    11 1
    12     6    12 1
    13     8    13 1
@<TRIPOS>SUBSTRUCTURE
     1 FP2         1 TEMP              0 ****  ****    0 ROOT
