@<TRIPOS>MOLECULE
FP3
   35    38     1     0     0
SMALL
bcc


@<TRIPOS>ATOM
      1 C1         -0.2420    1.0100    0.0190 ca        1 FP3     -0.108600
      2 C2          1.1350    1.2380    0.0490 ca        1 FP3     -0.051000
      3 C3          1.9030    0.8190    1.1260 ca        1 FP3     -0.213000
      4 C4          1.3020    0.1560    2.2220 ca        1 FP3      0.196600
      5 C5         -0.0880   -0.0890    2.1920 ca        1 FP3     -0.212000
      6 C6         -0.8490    0.3410    1.0970 ca        1 FP3      0.171100
      7 N7          2.0200   -0.2320    3.3640 nh        1 FP3     -0.597400
      8 C8          5.0290    3.3040    3.2000 ca        1 FP3      0.364200
      9 N9          6.3110    2.9260    3.4280 nb        1 FP3     -0.642000
     10 C10         6.5790    1.6290    3.6340 ca        1 FP3      0.412200
     11 C11         5.5370    0.6850    3.6100 ca        1 FP3     -0.046200
     12 C12         4.1890    1.0790    3.3640 ca        1 FP3     -0.093800
     13 C13         3.9280    2.4330    3.1550 ca        1 FP3     -0.179300
     14 O14         5.6330   -0.6830    3.8220 os        1 FP3     -0.144200
     15 C15         4.3180   -1.1810    3.6930 cc        1 FP3     -0.081700
     16 C16         3.4030   -0.1560    3.4330 cd        1 FP3      0.146800
     17 C17         4.1420   -2.6240    3.8660 ca        1 FP3      0.727800
     18 N18         5.2510   -3.4370    3.8280 nb        1 FP3     -0.689500
     19 C19         5.0320   -4.7560    3.9770 ca        1 FP3      0.437200
     20 C20         3.7470   -5.3020    4.1610 ca        1 FP3     -0.362600
     21 C21         2.6770   -4.3890    4.1830 ca        1 FP3      0.437200
     22 N22         2.8490   -3.0630    4.0410 nb        1 FP3     -0.689500
     23 O23        -2.1910    0.0580    1.1660 oh        1 FP3     -0.492100
     24 CL1        -1.1550    1.5360   -1.3160 cl        1 FP3     -0.095400
     25 H2          1.6220    1.7540   -0.7950 ha        1 FP3      0.150000
     26 H3          2.9880    1.0060    1.1190 ha        1 FP3      0.151000
     27 H5         -0.6010   -0.6100    3.0140 ha        1 FP3      0.159000
     28 HN7         1.6090   -0.9880    3.8770 hn        1 FP3      0.451800
     29 H10         7.6270    1.3410    3.8180 h4        1 FP3      0.044100
     30 H13         2.9110    2.8010    2.9650 ha        1 FP3      0.161000
     31 H19         5.9320   -5.3980    3.9450 h4        1 FP3      0.034600
     32 H20         3.5890   -6.3790    4.2790 ha        1 FP3      0.161000
     33 H21         1.6330   -4.7270    4.3220 h4        1 FP3      0.034600
     34 HO23       -2.6170    0.4010    0.3640 ho        1 FP3      0.432000
     35 H8          4.8860    4.3890    3.0450 h4        1 FP3      0.028100
@<TRIPOS>BOND
     1    1    2 ar  
     2    1    6 ar  
     3    1   24 1   
     4    2    3 ar  
     5    2   25 1   
     6    3    4 ar  
     7    3   26 1   
     8    4    5 ar  
     9    4    7 1   
    10    5    6 ar  
    11    5   27 1   
    12    6   23 1   
    13    7   16 1   
    14    7   28 1   
    15    8    9 ar  
    16    8   13 ar  
    17    8   35 1   
    18    9   10 ar  
    19   10   11 ar  
    20   10   29 1   
    21   11   12 ar  
    22   11   14 1   
    23   12   13 ar  
    24   12   16 1   
    25   13   30 1   
    26   14   15 1   
    27   15   16 2   
    28   15   17 1   
    29   17   18 ar  
    30   17   22 ar  
    31   18   19 ar  
    32   19   20 ar  
    33   19   31 1   
    34   20   21 ar  
    35   20   32 1   
    36   21   22 ar  
    37   21   33 1   
    38   23   34 1   
@<TRIPOS>SUBSTRUCTURE
     1 FP3         1 TEMP              0 ****  ****    0 ROOT
