@<TRIPOS>MOLECULE
FP4
   47    51     1     0     0
SMALL
bcc


@<TRIPOS>ATOM
      1 C1          0.8270   -0.1230   -0.2200 ca        1 FP4      0.363200
      2 N2          2.1290   -0.4450   -0.0260 nb        1 FP4     -0.642000
      3 C3          2.5890   -0.5640    1.2270 ca        1 FP4      0.410200
      4 C4          1.7230   -0.3570    2.3160 ca        1 FP4     -0.045200
      5 C5          0.3510   -0.0250    2.1140 ca        1 FP4     -0.094800
      6 C6         -0.1100    0.0980    0.8030 ca        1 FP4     -0.176300
      7 O7          2.0340   -0.4180    3.6670 os        1 FP4     -0.145200
      8 C8          0.8300   -0.1360    4.3480 cc        1 FP4     -0.087700
      9 C9         -0.2160    0.1290    3.4570 cd        1 FP4      0.155800
     10 C10         0.8840   -0.1530    5.8100 ca        1 FP4      0.731800
     11 N11         1.9530   -0.7640    6.4260 nb        1 FP4     -0.691500
     12 C12         1.9450   -0.7710    7.7700 ca        1 FP4      0.436200
     13 C13         0.9100   -0.1960    8.5330 ca        1 FP4     -0.364600
     14 C14        -0.1380    0.4030    7.8120 ca        1 FP4      0.436200
     15 N15        -0.1700    0.4380    6.4680 nb        1 FP4     -0.691500
     16 N16        -1.5010    0.5580    3.7440 nh        1 FP4     -0.602400
     17 C17        -2.6420   -0.1450    3.3390 ca        1 FP4      0.231600
     18 C18        -2.5910   -1.2550    2.4770 ca        1 FP4     -0.230000
     19 C19        -3.7520   -1.8990    2.0270 ca        1 FP4     -0.060000
     20 C20        -5.0190   -1.4920    2.4090 ca        1 FP4     -0.186000
     21 C21        -5.0930   -0.3980    3.2830 ca        1 FP4     -0.015200
     22 C22        -3.9200    0.2900    3.7680 ca        1 FP4     -0.252900
     23 N23        -6.1920    0.2680    3.8440 na        1 FP4     -0.021100
     24 N24        -5.8120    1.2590    4.6570 nc        1 FP4     -0.518100
     25 C25        -4.4570    1.3350    4.6420 cd        1 FP4      0.356900
     26 C26        -3.7000    2.3470    5.4210 c3        1 FP4     -0.090700
     27 C27        -3.2320    3.4880    4.5400 c3        1 FP4     -0.087400
     28 C28        -2.4060    4.4710    5.3520 c3        1 FP4      0.131400
     29 O29        -2.0520    5.5330    4.4810 oh        1 FP4     -0.597800
     30 H1          0.5240   -0.0370   -1.2790 h4        1 FP4      0.028100
     31 H3          3.6510   -0.8260    1.3660 h4        1 FP4      0.043100
     32 H6         -1.1540    0.3560    0.5820 ha        1 FP4      0.163000
     33 H12         2.8100   -1.2650    8.2520 h4        1 FP4      0.033600
     34 H13         0.9210   -0.2160    9.6280 ha        1 FP4      0.160000
     35 H14        -0.9930    0.8780    8.3270 h4        1 FP4      0.033600
     36 HN16       -1.6010    1.0800    4.5920 hn        1 FP4      0.455800
     37 H18        -1.6160   -1.6390    2.1380 ha        1 FP4      0.145000
     38 H19        -3.6420   -2.7610    1.3500 ha        1 FP4      0.135000
     39 H20        -5.9220   -2.0000    2.0500 ha        1 FP4      0.140000
     40 H26        -4.3460    2.7640    6.2430 hc        1 FP4      0.056200
     41 H26A       -2.8280    1.8510    5.9250 hc        1 FP4      0.056200
     42 H27        -4.1160    4.0210    4.1010 hc        1 FP4      0.068200
     43 H27A       -2.6190    3.1070    3.6830 hc        1 FP4      0.068200
     44 H28        -1.4790    3.9750    5.7490 h1        1 FP4      0.018700
     45 H28A       -3.0010    4.8700    6.2170 h1        1 FP4      0.018700
     46 HO29       -1.5060    6.1390    4.9940 ho        1 FP4      0.399000
     47 HN23       -7.1400   -0.0210    3.8140 hn        1 FP4      0.324700
@<TRIPOS>BOND
     1    1    2 ar  
     2    1    6 ar  
     3    1   30 1   
     4    2    3 ar  
     5    3    4 ar  
     6    3   31 1   
     7    4    5 ar  
     8    4    7 1   
     9    5    6 ar  
    10    5    9 1   
    11    6   32 1   
    12    7    8 1   
    13    8    9 2   
    14    8   10 1   
    15    9   16 1   
    16   10   11 ar  
    17   10   15 ar  
    18   11   12 ar  
    19   12   13 ar  
    20   12   33 1   
    21   13   14 ar  
    22   13   34 1   
    23   14   15 ar  
    24   14   35 1   
    25   16   17 1   
    26   16   36 1   
    27   17   18 ar  
    28   17   22 ar  
    29   18   19 ar  
    30   18   37 1   
    31   19   20 ar  
    32   19   38 1   
    33   20   21 ar  
    34   20   39 1   
    35   21   22 ar  
    36   21   23 1   
    37   22   25 1   
    38   23   24 1   
    39   23   47 1   
    40   24   25 2   
    41   25   26 1   
    42   26   27 1   
    43   26   40 1   
    44   26   41 1   
    45   27   28 1   
    46   27   42 1   
    47   27   43 1   
    48   28   29 1   
    49   28   44 1   
    50   28   45 1   
    51   29   46 1   
@<TRIPOS>SUBSTRUCTURE
     1 FP4         1 TEMP              0 ****  ****    0 ROOT
