@<TRIPOS>MOLECULE
FP6
   16    16     1     0     0
SMALL
bcc


@<TRIPOS>ATOM
      1 OAA          0.0000     0.0000     0.0000 o          1 FP6      -0.651100
      2 CAB          1.2130     0.0000     0.0000 c          1 FP6       0.644900
      3 CAC          3.6130     0.0000     2.7810 c3         1 FP6      -0.034400
      4 CAD          2.4320     0.7510     3.4520 c3         1 FP6      -0.034400
      5 CAE          3.3530     0.2880     1.2810 c3         1 FP6       0.059000
      6 CAF          1.2790     0.5520     2.4450 c3         1 FP6       0.059000
      7 NAG          1.8860     0.2570     1.1390 n          1 FP6      -0.196800
      8 HAB          1.7540    -0.1740    -0.9220 h5         1 FP6      -0.018800
      9 HACA         4.5630     0.4160     3.0950 hc         1 FP6       0.024200
     10 HAD          2.1870     0.3010     4.4060 hc         1 FP6       0.024200
     11 HADA         2.6640     1.8030     3.5640 hc         1 FP6       0.024200
     12 HAE          3.8060    -0.4810     0.6670 h1         1 FP6       0.018700
     13 HAEA         3.7350     1.2660     1.0150 h1         1 FP6       0.018700
     14 HAF          0.6890     1.4580     2.3800 h1         1 FP6       0.018700
     15 HAFA         0.6580    -0.2780     2.7580 h1         1 FP6       0.018700
     16 HAC          3.5600    -1.0630     2.9850 hc         1 FP6       0.024200
@<TRIPOS>BOND
     1     1     2 2   
     2     2     7 1   
     3     2     8 1   
     4     3     4 1   
     5     3     5 1   
     6     3     9 1   
     7     3    16 1   
     8     4     6 1   
     9     4    10 1   
    10     4    11 1   
    11     5     7 1   
    12     5    12 1   
    13     5    13 1   
    14     6     7 1   
    15     6    14 1   
    16     6    15 1   
@<TRIPOS>SUBSTRUCTURE
     1 FP6         1 TEMP              0 ****  ****    0 ROOT
