@<TRIPOS>MOLECULE
FPA
    7     6     1     0     0
SMALL
bcc


@<TRIPOS>ATOM
      1 C1         -0.4310    0.5390   -0.0360 c3        1 FPA      0.382000
      2 F1         -0.0450    0.9680   -1.2780 f         1 FPA     -0.240300
      3 F2         -0.8620    1.7110    0.5240 f         1 FPA     -0.240300
      4 C2         -1.5540   -0.6280   -0.0640 c         1 FPA      0.947600
      5 O1         -1.4840   -1.3940   -1.0440 o         1 FPA     -0.753300
      6 O2         -2.3600   -0.5970    0.8850 o         1 FPA     -0.753300
      7 BR1         1.1910   -0.2230    1.0140 br        1 FPA     -0.342400
@<TRIPOS>BOND
     1    1    2 1   
     2    1    3 1   
     3    1    4 1   
     4    1    7 1   
     5    4    5 1   
     6    4    6 1   
@<TRIPOS>SUBSTRUCTURE
     1 FPA         1 TEMP              0 ****  ****    0 ROOT
