@<TRIPOS>MOLECULE
molecule
    7     6     1     0     0
SMALL
bcc


@<TRIPOS>ATOM
      1 C1          -0.4360     0.5420     0.0000 c3         1 FPA       0.394000
      2 F1          -0.6170     1.3290    -1.1420 f          1 FPA      -0.234300
      3 F2          -0.6170     1.3290     1.1420 f          1 FPA      -0.234300
      4 C2          -1.4410    -0.5820     0.0000 c          1 FPA       0.867600
      5 O1          -1.0630    -1.7300     0.0000 o          1 FPA      -0.776800
      6 O2          -2.7540    -0.3080     0.0000 o          1 FPA      -0.776800
      7 Br1          1.3830    -0.2050    -0.0000 br         1 FPA      -0.240400
@<TRIPOS>BOND
     1     1     2 1
     2     1     3 1
     3     1     4 1
     4     1     7 1
     5     4     5 1
     6     4     6 1
@<TRIPOS>SUBSTRUCTURE
     1 FPA         1 TEMP              0 ****  ****    0 ROOT
