@<TRIPOS>MOLECULE
molecule
   55    57     1     0     0
SMALL
bcc


@<TRIPOS>ATOM
      1 O16          0.0000     0.0000     0.0000 o          1 FPB      -0.649100
      2 C12          1.2120     0.0000     0.0000 c          1 FPB       0.668100
      3 C11          1.9660     0.0000     1.3040 c3         1 FPB      -0.187400
      4 C10          0.9720     0.0020     2.4680 c3         1 FPB       0.132500
      5 N18          0.1290     1.2020     2.3890 nz         1 FPB      -0.815600
      6 C9           1.7360     0.0020     3.7930 c3         1 FPB      -0.053100
      7 C3           0.7590     0.0050     4.9380 ca         1 FPB      -0.185300
      8 C5           0.3150     1.2040     5.4670 ca         1 FPB       0.094900
      9 F8           0.7540     2.3740     4.9530 f          1 FPB      -0.158900
     10 C7          -0.5900     1.2050     6.5160 ca         1 FPB      -0.143000
     11 C6          -1.0390     0.0080     7.0420 ca         1 FPB      -0.076000
     12 C4          -0.5900    -1.1890     6.5160 ca         1 FPB      -0.117000
     13 C2           0.3070    -1.1910     5.4650 ca         1 FPB      -0.085000
     14 N13          1.8860    -0.0020    -1.1660 n          1 FPB      -0.458800
     15 C14          1.2850    -0.1210    -2.5030 c3         1 FPB       0.088700
     16 C21          2.4330    -0.0450    -3.5310 c3         1 FPB      -0.094400
     17 C20          3.5630     0.6690    -2.7410 c3         1 FPB      -0.091400
     18 C19          3.3490     0.1070    -1.3140 c3         1 FPB       0.081000
     19 C15          0.5510    -1.4550    -2.6390 c3         1 FPB       0.102000
     20 N17         -0.1110    -1.5180    -3.9440 ns         1 FPB      -0.590900
     21 C22         -0.9020    -2.5640    -4.2500 c          1 FPB       0.680700
     22 O1          -1.0670    -3.4570    -3.4420 o          1 FPB      -0.604100
     23 C25         -1.5700    -2.6280    -5.5680 ca         1 FPB      -0.154600
     24 C27         -2.3900    -3.7110    -5.8870 ca         1 FPB      -0.085500
     25 C28         -3.0110    -3.7640    -7.1170 ca         1 FPB      -0.134500
     26 C26         -2.8210    -2.7460    -8.0350 ca         1 FPB      -0.096000
     27 C24         -2.0090    -1.6700    -7.7250 ca         1 FPB      -0.134500
     28 C23         -1.3860    -1.6020    -6.4960 ca         1 FPB      -0.085500
     29 H111         2.5900     0.8840     1.3610 hc         1 FPB       0.100200
     30 H112         2.5880    -0.8850     1.3620 hc         1 FPB       0.100200
     31 H10          0.3480    -0.8820     2.4110 hx         1 FPB       0.130700
     32 H181        -0.2630     1.2760     1.4710 hn         1 FPB       0.461800
     33 H182         0.6840     2.0130     2.5810 hn         1 FPB       0.461800
     34 H9C1         2.3570    -0.8840     3.8510 hc         1 FPB       0.090700
     35 H9C2         2.3610     0.8850     3.8500 hc         1 FPB       0.090700
     36 H7          -0.9390     2.1430     6.9290 ha         1 FPB       0.166000
     37 H6          -1.7440     0.0090     7.8640 ha         1 FPB       0.163000
     38 H4          -0.9430    -2.1270     6.9280 ha         1 FPB       0.161000
     39 H2           0.6580    -2.1310     5.0540 ha         1 FPB       0.150000
     40 H14          0.5960     0.7000    -2.6660 h1         1 FPB       0.073700
     41 H211         2.7450    -1.0390    -3.8280 hc         1 FPB       0.073200
     42 H212         2.1380     0.5450    -4.3900 hc         1 FPB       0.073200
     43 H201         3.4250     1.7430    -2.7570 hc         1 FPB       0.071200
     44 H202         4.5370     0.3900    -3.1240 hc         1 FPB       0.071200
     45 H191         3.8090    -0.8700    -1.2230 h1         1 FPB       0.055700
     46 H192         3.7510     0.7910    -0.5770 h1         1 FPB       0.055700
     47 H151         1.2610    -2.2690    -2.5550 h1         1 FPB       0.066700
     48 H152        -0.1910    -1.5410    -1.8540 h1         1 FPB       0.066700
     49 H17          0.0080    -0.7730    -4.6020 hn         1 FPB       0.316500
     50 H27         -2.5400    -4.5090    -5.1690 ha         1 FPB       0.137000
     51 H28         -3.6480    -4.6040    -7.3660 ha         1 FPB       0.140000
     52 H26         -3.3090    -2.7940    -9.0010 ha         1 FPB       0.140000
     53 H24         -1.8660    -0.8760    -8.4480 ha         1 FPB       0.140000
     54 H23         -0.7510    -0.7590    -6.2540 ha         1 FPB       0.137000
     55 H183        -0.6170     1.1300     3.0530 hn         1 FPB       0.461800
@<TRIPOS>BOND
     1     1     2 2
     2     2     3 1
     3     2    14 1
     4     3     4 1
     5     3    29 1
     6     3    30 1
     7     4     5 1
     8     4     6 1
     9     4    31 1
    10     5    32 1
    11     5    33 1
    12     6     7 1
    13     6    34 1
    14     6    35 1
    15     7     8 ar
    16     7    13 ar
    17     8     9 1
    18     8    10 ar
    19    10    11 ar
    20    10    36 1
    21    11    12 ar
    22    11    37 1
    23    12    13 ar
    24    12    38 1
    25    13    39 1
    26    14    15 1
    27    14    18 1
    28    15    16 1
    29    15    19 1
    30    15    40 1
    31    16    17 1
    32    16    41 1
    33    16    42 1
    34    17    18 1
    35    17    43 1
    36    17    44 1
    37    18    45 1
    38    18    46 1
    39    19    20 1
    40    19    47 1
    41    19    48 1
    42    20    21 1
    43    20    49 1
    44    21    22 2
    45    21    23 1
    46    23    24 ar
    47    23    28 ar
    48    24    25 ar
    49    24    50 1
    50    25    26 ar
    51    25    51 1
    52    26    27 ar
    53    26    52 1
    54    27    28 ar
    55    27    53 1
    56    28    54 1
    57    55     5 1
@<TRIPOS>SUBSTRUCTURE
     1 FPB         1 TEMP              0 ****  ****    0 ROOT
