@<TRIPOS>MOLECULE
FPC
   29    28     1     0     0
SMALL
bcc


@<TRIPOS>ATOM
      1 O6          0.2590   -0.4770   -0.0950 os        1 FPC     -0.608200
      2 C6          1.6600   -0.5200   -0.0530 c3        1 FPC      0.164400
      3 C5          2.1530   -0.0450    1.3200 c3        1 FPC      0.062100
      4 O5          1.4260   -0.6930    2.3620 oh        1 FPC     -0.655800
      5 C2          5.4900    0.3390    3.1740 c3        1 FPC      0.149100
      6 C1          5.9570    0.2420    4.6280 c3        1 FPC      0.131400
      7 O1          7.3090    0.6500    4.7860 oh        1 FPC     -0.651800
      8 O2          6.4050   -0.4390    2.4170 oh        1 FPC     -0.678800
      9 O3          3.7920   -1.2300    3.8380 oh        1 FPC     -0.652800
     10 C3          4.0270   -0.0890    3.0180 c3        1 FPC      0.051100
     11 C4          3.6720   -0.3610    1.5060 c3        1 FPC      0.383800
     12 O4          4.4490    0.3180    0.6810 o         1 FPC     -0.897500
     13 P          -0.4520    0.4360   -1.2640 p5        1 FPC      1.433800
     14 O1P        -0.0010    1.9140   -0.7250 oh        1 FPC     -0.787400
     15 O2P         0.3040    0.2630   -2.5240 o         1 FPC     -0.850000
     16 O3P        -1.9150    0.2820   -1.1260 o         1 FPC     -0.850000
     17 H61         1.9790   -1.5890   -0.2050 h1        1 FPC      0.034200
     18 H62         2.1040    0.1160   -0.8650 h1        1 FPC      0.034200
     19 H5          1.9800    1.0630    1.4110 h1        1 FPC      0.019700
     20 HO5         0.5140   -0.7670    2.0550 ho        1 FPC      0.406000
     21 H11         5.3580    0.9340    5.2740 h1        1 FPC      0.037700
     22 H12         5.8500   -0.8120    4.9960 h1        1 FPC      0.037700
     23 HO1         7.7850    0.3200    4.0130 ho        1 FPC      0.412000
     24 HO2         6.0580   -0.4450    1.5030 ho        1 FPC      0.469000
     25 H3          3.3830    0.7460    3.4150 h1        1 FPC      0.010700
     26 H4          3.7680   -1.4960    1.3890 h1        1 FPC     -0.081300
     27 HO4         0.9120    2.1020   -0.9070 ho        1 FPC      0.426000
     28 H2          5.5640    1.4070    2.8170 h1        1 FPC      0.034700
     29 HO3         3.0290   -1.6790    3.4510 ho        1 FPC      0.415000
@<TRIPOS>BOND
     1    1    2 1   
     2    1   13 1   
     3    2    3 1   
     4    2   17 1   
     5    2   18 1   
     6    3    4 1   
     7    3   11 1   
     8    3   19 1   
     9    4   20 1   
    10    5    6 1   
    11    5    8 1   
    12    5   10 1   
    13    5   28 1   
    14    6    7 1   
    15    6   21 1   
    16    6   22 1   
    17    7   23 1   
    18    8   24 1   
    19    9   10 1   
    20    9   29 1   
    21   10   11 1   
    22   10   25 1   
    23   11   12 1   
    24   11   26 1   
    25   13   14 1   
    26   13   15 1   
    27   13   16 1   
    28   14   27 1   
@<TRIPOS>SUBSTRUCTURE
     1 FPC         1 TEMP              0 ****  ****    0 ROOT
