@<TRIPOS>MOLECULE
molecule
   29    28     1     0     0
SMALL
bcc


@<TRIPOS>ATOM
      1 O6           0.0000     0.0000     0.0000 os         1 FPC      -0.581200
      2 C6           1.4290     0.0000     0.0000 c3         1 FPC       0.202400
      3 C5           1.9390     0.0000     1.4420 c3         1 FPC       0.125100
      4 O5           1.5620    -1.2210     2.0800 oh         1 FPC      -0.606800
      5 C2           5.5000     0.2510     2.8870 c3         1 FPC       0.134100
      6 C1           6.0200     0.1250     4.3200 c3         1 FPC       0.105400
      7 O1           7.4300     0.3580     4.3380 oh         1 FPC      -0.621800
      8 O2           6.0640    -0.7870     2.0830 oh         1 FPC      -0.581800
      9 O3           3.5960    -1.0960     3.5240 oh         1 FPC      -0.561800
     10 C3           3.9750     0.1250     2.8860 c3         1 FPC       0.146100
     11 C4           3.4650     0.1260     1.4440 c3         1 FPC       0.139100
     12 O4           3.8420     1.3460     0.8050 oh         1 FPC      -0.613800
     13 P           -0.8770     0.0010    -1.3500 p5         1 FPC       1.181900
     14 O1P         -0.4740     1.1440    -2.1990 o          1 FPC      -0.910833
     15 O2P         -0.6320    -1.3750    -2.1500 o          1 FPC      -0.910833
     16 O3P         -2.4370     0.1330    -0.9770 o          1 FPC      -0.910833
     17 H61          1.7900     0.8840    -0.5110 h1         1 FPC       0.021700
     18 H62          1.7900    -0.8850    -0.5110 h1         1 FPC       0.021700
     19 H5           1.5070     0.8360     1.9780 h1         1 FPC       0.027700
     20 HO5          0.7170    -1.1160     2.4860 ho         1 FPC       0.407000
     21 H11          5.5260     0.8550     4.9490 h1         1 FPC       0.028700
     22 H12          5.8140    -0.8710     4.6930 h1         1 FPC       0.028700
     23 HO1          7.7300     0.4030     5.2300 ho         1 FPC       0.389000
     24 HO2          6.8730    -0.4860     1.7030 ho         1 FPC       0.393000
     25 H3           3.5430     0.9610     3.4220 h1         1 FPC       0.036700
     26 H4           3.8960    -0.7110     0.9080 h1         1 FPC       0.071700
     27 HO4          4.3010     1.1530     0.0040 ho         1 FPC       0.406000
     28 H2           5.7830     1.2160     2.4830 h1         1 FPC       0.050700
     29 HO3          3.1930    -0.9040     4.3550 ho         1 FPC       0.382000
@<TRIPOS>BOND
     1     1     2 1
     2     1    13 1
     3     2     3 1
     4     2    17 1
     5     2    18 1
     6     3     4 1
     7     3    11 1
     8     3    19 1
     9     4    20 1
    10     5     6 1
    11     5     8 1
    12     5    10 1
    13     5    28 1
    14     6     7 1
    15     6    21 1
    16     6    22 1
    17     7    23 1
    18     8    24 1
    19     9    10 1
    20     9    29 1
    21    10    11 1
    22    10    25 1
    23    11    12 1
    24    11    26 1
    25    12    27 1
    26    13    14 1
    27    13    15 1
    28    13    16 1
@<TRIPOS>SUBSTRUCTURE
     1 FPC         1 TEMP              0 ****  ****    0 ROOT
