@<TRIPOS>MOLECULE
molecule
   54    56     1     0     0
SMALL
bcc


@<TRIPOS>ATOM
      1 O4           0.0000     0.0000     0.0000 o          1 FPD      -0.593500
      2 C11          1.2130     0.0000     0.0000 c          1 FPD       0.685500
      3 N2           1.9250     0.0000     1.1530 ns         1 FPD      -0.587900
      4 C5           3.3810     0.0680     1.1250 c3         1 FPD       0.249200
      5 C6           3.8530     0.9210    -0.0310 c          1 FPD       0.678500
      6 O6           4.7640     1.7110     0.0910 o          1 FPD      -0.602500
      7 N1           3.2360     0.7400    -1.2130 ns         1 FPD      -0.605900
      8 C10          2.0080     0.0010    -1.2910 c3         1 FPD       0.251200
      9 O7           1.1950     0.6870    -2.2470 oh         1 FPD      -0.591800
     10 C4           3.8490     0.7300     2.4210 c3         1 FPD       0.143100
     11 O3           2.7560     1.4220     3.0260 oh         1 FPD      -0.603800
     12 C1           4.3700    -0.3400     3.3820 c3         1 FPD       0.164800
     13 C3           3.2750    -1.3810     3.6270 c3         1 FPD      -0.107100
     14 O2           5.5140    -0.9790     2.8110 oh         1 FPD      -0.580800
     15 C2           4.7590     0.3110     4.7100 c3         1 FPD       0.102400
     16 O1           5.2450    -0.6890     5.6080 oh         1 FPD      -0.610800
     17 O5           3.9950    -1.1710     1.0300 os         1 FPD      -0.360600
     18 C7           4.1030    -1.7360    -0.2510 c3         1 FPD       0.116400
     19 C8           2.7480    -2.3240    -0.6690 c3         1 FPD      -0.128400
     20 C9           2.1280    -1.4350    -1.7980 c3         1 FPD      -0.059700
     21 C12          0.7400    -1.9660    -2.1650 c3         1 FPD       0.002700
     22 S1           0.9000    -3.6160    -2.9030 ss         1 FPD      -0.264000
     23 C           -0.7950    -3.9740    -3.2210 ca         1 FPD       0.023900
     24 C54         -1.1500    -5.1790    -3.8080 ca         1 FPD      -0.073000
     25 C53         -2.4970    -5.4600    -4.0540 ca         1 FPD      -0.189600
     26 C13         -2.8850    -6.7370    -4.6730 c          1 FPD       0.582500
     27 O8          -4.0530    -6.9770    -4.8880 o          1 FPD      -0.525100
     28 C52         -3.4750    -4.5190    -3.7130 ca         1 FPD      -0.075000
     29 C51         -3.1090    -3.3230    -3.1340 ca         1 FPD      -0.126000
     30 C50         -1.7770    -3.0470    -2.8870 ca         1 FPD      -0.118000
     31 HN2          1.4460    -0.0390     2.0320 hn         1 FPD       0.356500
     32 HN1          3.6380     1.1230    -2.0460 hn         1 FPD       0.341500
     33 HO7          1.4350     1.5980    -2.2680 ho         1 FPD       0.419000
     34 H4           4.6430     1.4340     2.2010 h1         1 FPD       0.089700
     35 HO3          2.9540     2.3420     3.0760 ho         1 FPD       0.418000
     36 H31          3.4910    -1.9250     4.5380 hc         1 FPD       0.054367
     37 H32          2.3180    -0.8820     3.7220 hc         1 FPD       0.054367
     38 H33          3.2400    -2.0720     2.7930 hc         1 FPD       0.054367
     39 HO2          6.1830    -1.0710     3.4690 ho         1 FPD       0.413000
     40 H21          5.5340     1.0480     4.5370 h1         1 FPD       0.034200
     41 H22          3.8910     0.7950     5.1430 h1         1 FPD       0.034200
     42 HO1          5.5440    -0.2800     6.4030 ho         1 FPD       0.411000
     43 H71          4.3980    -0.9710    -0.9590 h1         1 FPD       0.064200
     44 H72          4.8480    -2.5220    -0.2380 h1         1 FPD       0.064200
     45 H81          2.0820    -2.3420     0.1850 hc         1 FPD       0.075200
     46 H82          2.8900    -3.3320    -1.0380 hc         1 FPD       0.075200
     47 H9           2.7690    -1.4600    -2.6710 hc         1 FPD       0.079700
     48 H121         0.2740    -1.2960    -2.8770 h1         1 FPD       0.091200
     49 H122         0.1290    -2.0280    -1.2730 h1         1 FPD       0.091200
     50 H54         -0.3820    -5.8600    -4.1540 ha         1 FPD       0.141000
     51 H13         -2.1260    -7.4660    -4.9330 h4         1 FPD       0.001200
     52 H52         -4.5200    -4.7310    -3.9030 ha         1 FPD       0.153000
     53 H51         -3.8670    -2.5960    -2.8710 ha         1 FPD       0.140000
     54 H50         -1.4960    -2.1050    -2.4310 ha         1 FPD       0.149000
@<TRIPOS>BOND
     1     1     2 2
     2     2     3 1
     3     2     8 1
     4     3     4 1
     5     3    31 1
     6     4     5 1
     7     4    10 1
     8     4    17 1
     9     5     6 2
    10     5     7 1
    11     7     8 1
    12     7    32 1
    13     8     9 1
    14     8    20 1
    15     9    33 1
    16    10    11 1
    17    10    12 1
    18    10    34 1
    19    11    35 1
    20    12    13 1
    21    12    14 1
    22    12    15 1
    23    13    36 1
    24    13    37 1
    25    13    38 1
    26    14    39 1
    27    15    16 1
    28    15    40 1
    29    15    41 1
    30    16    42 1
    31    17    18 1
    32    18    19 1
    33    18    43 1
    34    18    44 1
    35    19    20 1
    36    19    45 1
    37    19    46 1
    38    20    21 1
    39    20    47 1
    40    21    22 1
    41    21    48 1
    42    21    49 1
    43    22    23 1
    44    23    24 ar
    45    23    30 ar
    46    24    25 ar
    47    24    50 1
    48    25    26 1
    49    25    28 ar
    50    26    27 2
    51    26    51 1
    52    28    29 ar
    53    28    52 1
    54    29    30 ar
    55    29    53 1
    56    30    54 1
@<TRIPOS>SUBSTRUCTURE
     1 FPD         1 TEMP              0 ****  ****    0 ROOT
