@<TRIPOS>MOLECULE
molecule
   14    13     1     0     0
SMALL
bcc


@<TRIPOS>ATOM
      1 O1           0.0000     0.0000     0.0000 o          1 FPE      -0.895800
      2 C1           1.3420     0.0000     0.0000 c          1 FPE       0.899600
      3 O2'          1.9460     0.0030    -1.0470 o          1 FPE      -0.895800
      4 C2           2.0960     0.0000     1.3030 c3         1 FPE       0.059100
      5 O5           3.5000     0.0020     1.0430 os         1 FPE      -0.530200
      6 P1           4.1000    -1.3330     1.7130 p5         1 FPE       1.197900
      7 O2           3.4550    -2.5210     1.1110 o          1 FPE      -0.937500
      8 O3           5.6870    -1.3970     1.4560 o          1 FPE      -0.937500
      9 O4           3.8140    -1.3140     3.2970 o          1 FPE      -0.937500
     10 C3           1.7260     1.2470     2.1080 c3         1 FPE       0.159900
     11 F1           2.4260     1.2460     3.3190 f          1 FPE      -0.266300
     12 H2           1.8360    -0.8850     1.8710 h1         1 FPE       0.081700
     13 H31          1.9860     2.1330     1.5410 h1         1 FPE       0.000700
     14 H32          0.6610     1.2460     2.3060 h1         1 FPE       0.000700
@<TRIPOS>BOND
     1     1     2 1
     2     2     3 1
     3     2     4 1
     4     4     5 1
     5     4    10 1
     6     4    12 1
     7     5     6 1
     8     6     7 1
     9     6     8 1
    10     6     9 1
    11    10    11 1
    12    10    13 1
    13    10    14 1
@<TRIPOS>SUBSTRUCTURE
     1 FPE         1 TEMP              0 ****  ****    0 ROOT
