@<TRIPOS>MOLECULE
FPE
   14    13     1     0     0
SMALL
bcc


@<TRIPOS>ATOM
      1 O1         -0.4500   -0.5470    0.9500 o         1 FPE     -0.915300
      2 C1          0.5990    0.0840    0.5930 c         1 FPE      0.903600
      3 O2'         0.5280    0.9150   -0.3720 o         1 FPE     -0.915300
      4 C2          1.9070   -0.0920    1.4060 c3        1 FPE      0.128100
      5 O5          2.8510   -0.8440    0.7350 os        1 FPE     -0.565200
      6 P1          4.0860   -1.6250    1.6510 p5        1 FPE      1.326900
      7 O2          4.7070   -2.5660    0.6460 o         1 FPE     -0.949833
      8 O3          4.9750   -0.4660    2.0530 o         1 FPE     -0.949833
      9 O4          3.3970   -2.3000    2.8110 o         1 FPE     -0.949833
     10 C3          2.4880    1.3290    1.6930 c3        1 FPE      0.060900
     11 F1          1.8460    1.9970    2.7290 f         1 FPE     -0.323300
     12 H2          1.6670   -0.5840    2.3930 h1        1 FPE      0.028700
     13 H31         2.3980    1.9550    0.7670 h1        1 FPE      0.059700
     14 H32         3.5750    1.1710    1.9670 h1        1 FPE      0.059700
@<TRIPOS>BOND
     1    1    2 1   
     2    2    3 1   
     3    2    4 1   
     4    4    5 1   
     5    4   10 1   
     6    4   12 1   
     7    5    6 1   
     8    6    7 1   
     9    6    8 1   
    10    6    9 1   
    11   10   11 1   
    12   10   13 1   
    13   10   14 1   
@<TRIPOS>SUBSTRUCTURE
     1 FPE         1 TEMP              0 ****  ****    0 ROOT
