@<TRIPOS>MOLECULE
FPF
   49    48     1     0     0
SMALL
bcc


@<TRIPOS>ATOM
      1 C1          0.4140   -0.3810   -0.1950 c3        1 FPF      0.237600
      2 O1          1.6790    0.1220   -0.1220 os        1 FPF     -0.554200
      3 C2         -0.4500    0.0120    1.0060 c2        1 FPF      0.115300
      4 F          -1.2720   -1.0030    1.4170 f         1 FPF     -0.244500
      5 C3         -0.5150    1.2060    1.6490 c2        1 FPF     -0.224400
      6 C4          0.2880    2.3860    1.2640 c3        1 FPF     -0.057900
      7 C5         -1.4370    1.4190    2.8040 c3        1 FPF     -0.017200
      8 C6         -0.7230    1.1820    4.1240 c3        1 FPF     -0.065200
      9 C7         -1.5900    1.4320    5.2970 c2        1 FPF     -0.112200
     10 C8         -1.2220    1.1840    6.5660 c2        1 FPF     -0.194400
     11 C10         0.1100    0.6240    6.8970 c3        1 FPF     -0.046900
     12 C9         -2.1310    1.4670    7.7120 c3        1 FPF     -0.021200
     13 C11        -2.6320    0.1860    8.3550 c3        1 FPF     -0.054200
     14 C12        -3.4850    0.4440    9.5370 c2        1 FPF     -0.147200
     15 C13        -4.1080   -0.5240   10.2290 c2        1 FPF     -0.158400
     16 C14        -3.9960   -1.9540    9.8550 c3        1 FPF     -0.049400
     17 C15        -4.9540   -0.2250   11.4090 c3        1 FPF     -0.049400
     18 P1          2.2760    1.0020   -1.4820 p5        1 FPF      1.569800
     19 O1A         1.0380    1.2040   -2.2940 o         1 FPF     -0.917500
     20 O2A         2.7840    2.2120   -0.7710 o         1 FPF     -0.917500
     21 O3A         3.3200    0.0350   -2.0860 os        1 FPF     -0.798800
     22 P2          4.5010   -1.0690   -2.8710 p5        1 FPF      1.455900
     23 O1B         4.9310   -0.2840   -4.0780 o         1 FPF     -0.955833
     24 O2B         5.5720   -1.2630   -1.8340 o         1 FPF     -0.955833
     25 O3B         3.6870   -2.2970   -3.1670 o         1 FPF     -0.955833
     26 H1          0.4430   -1.5130   -0.1900 h1        1 FPF      0.040200
     27 H1A        -0.1240   -0.0210   -1.1240 h1        1 FPF      0.040200
     28 H4          1.1400    2.1230    0.5600 hc        1 FPF      0.054700
     29 H4A         0.7250    2.8660    2.1760 hc        1 FPF      0.054700
     30 H4B        -0.3650    3.1380    0.7550 hc        1 FPF      0.054700
     31 H5         -2.3220    0.7320    2.7370 hc        1 FPF      0.016200
     32 H5A        -1.8290    2.4710    2.7800 hc        1 FPF      0.016200
     33 H6         -0.3420    0.1230    4.1500 hc        1 FPF      0.069200
     34 H6A         0.1840    1.8480    4.1770 hc        1 FPF      0.069200
     35 H7         -2.5880    1.8470    5.0790 ha        1 FPF      0.106000
     36 H10         0.9160    1.2090    6.3850 hc        1 FPF      0.036700
     37 H10A        0.1830   -0.4340    6.5400 hc        1 FPF      0.036700
     38 H10B        0.3000    0.6410    7.9980 hc        1 FPF      0.036700
     39 H9         -3.0100    2.0770    7.3730 hc        1 FPF      0.029700
     40 H9A        -1.5810    2.0770    8.4790 hc        1 FPF      0.029700
     41 H11        -3.2090   -0.4110    7.5960 hc        1 FPF      0.057200
     42 H11A       -1.7520   -0.4470    8.6580 hc        1 FPF      0.057200
     43 H12        -3.5910    1.5000    9.8360 ha        1 FPF      0.115000
     44 H14        -4.4490   -2.1260    8.8450 hc        1 FPF      0.033533
     45 H14A       -4.5150   -2.6110   10.5930 hc        1 FPF      0.033533
     46 H14B       -2.9200   -2.2590    9.8000 hc        1 FPF      0.033533
     47 H15        -5.0020    0.8720   11.6150 hc        1 FPF      0.033533
     48 H15A       -4.5450   -0.7360   12.3160 hc        1 FPF      0.033533
     49 H15B       -5.9950   -0.5970   11.2400 hc        1 FPF      0.033533
@<TRIPOS>BOND
     1    1    2 1   
     2    1    3 1   
     3    1   26 1   
     4    1   27 1   
     5    2   18 1   
     6    3    4 1   
     7    3    5 2   
     8    5    6 1   
     9    5    7 1   
    10    6   28 1   
    11    6   29 1   
    12    6   30 1   
    13    7    8 1   
    14    7   31 1   
    15    7   32 1   
    16    8    9 1   
    17    8   33 1   
    18    8   34 1   
    19    9   10 2   
    20    9   35 1   
    21   10   11 1   
    22   10   12 1   
    23   11   36 1   
    24   11   37 1   
    25   11   38 1   
    26   12   13 1   
    27   12   39 1   
    28   12   40 1   
    29   13   14 1   
    30   13   41 1   
    31   13   42 1   
    32   14   15 2   
    33   14   43 1   
    34   15   16 1   
    35   15   17 1   
    36   16   44 1   
    37   16   45 1   
    38   16   46 1   
    39   17   47 1   
    40   17   48 1   
    41   17   49 1   
    42   18   19 1   
    43   18   20 1   
    44   18   21 1   
    45   21   22 1   
    46   22   23 1   
    47   22   24 1   
    48   22   25 1   
@<TRIPOS>SUBSTRUCTURE
     1 FPF         1 TEMP              0 ****  ****    0 ROOT
