@<TRIPOS>MOLECULE
molecule
   49    48     1     0     0
SMALL
bcc


@<TRIPOS>ATOM
      1 C1           0.0000     0.0000     0.0000 c3         1 FPF       0.244600
      2 O1           1.4290     0.0000     0.0000 os         1 FPF      -0.587200
      3 C2          -0.5020     0.0000     1.4210 c2         1 FPF       0.158300
      4 F           -0.2470    -1.0530     2.2270 f          1 FPF      -0.185500
      5 C3          -1.1880     1.0240     1.8750 c2         1 FPF      -0.252400
      6 C4          -1.3870     2.2410     1.0090 c3         1 FPF      -0.027900
      7 C5          -1.7770     0.9820     3.2610 c3         1 FPF      -0.051200
      8 C6          -0.8170     1.6560     4.2430 c3         1 FPF      -0.084200
      9 C7          -1.4060     1.6130     5.6300 c2         1 FPF      -0.566200
     10 C8          -0.7730     0.9890     6.5920 c2         1 FPF       0.003600
     11 C10          0.4950     0.2320     6.2910 c3         1 FPF      -0.126900
     12 C9          -1.3120     1.0280     7.9980 c3         1 FPF      -0.004200
     13 C11         -2.1680    -0.2150     8.2510 c3         1 FPF      -0.052200
     14 C12         -2.7080    -0.1760     9.6570 c2         1 FPF      -0.522200
     15 C13         -3.9940    -0.3020     9.8690 c2         1 FPF      -0.079400
     16 C14         -4.9140    -0.6560     8.7300 c3         1 FPF      -0.064900
     17 C15         -4.5530    -0.0930    11.2530 c3         1 FPF      -0.064900
     18 P1           2.3060    -0.0010    -1.3510 p5         1 FPF       1.422800
     19 O1A          1.9030    -1.1440    -2.2000 o          1 FPF      -0.852000
     20 O2A          2.0600     1.3750    -2.1510 o          1 FPF      -0.852000
     21 O3A          3.8660    -0.1320    -0.9770 os         1 FPF      -0.712800
     22 P2           5.1910    -0.4910    -1.8190 p5         1 FPF       1.310900
     23 O1B          5.6840     0.8140    -2.6260 o          1 FPF      -0.846167
     24 O2B          6.3540    -0.9700    -0.8130 o          1 FPF      -0.846167
     25 O3B          4.8890    -1.5770    -2.7770 o          1 FPF      -0.846167
     26 H1          -0.3610     0.8840    -0.5110 h1         1 FPF       0.041700
     27 H1A         -0.3610    -0.8850    -0.5110 h1         1 FPF       0.041700
     28 H4          -0.4220     2.6510     0.7360 hc         1 FPF       0.041033
     29 H4A         -1.9540     2.9840     1.5550 hc         1 FPF       0.041033
     30 H4B         -1.9270     1.9610     0.1120 hc         1 FPF       0.041033
     31 H5          -2.7250     1.5040     3.2670 hc         1 FPF       0.041700
     32 H5A         -1.9310    -0.0490     3.5570 hc         1 FPF       0.041700
     33 H6           0.1320     1.1330     4.2380 hc         1 FPF       0.069200
     34 H6A         -0.6630     2.6860     3.9480 hc         1 FPF       0.069200
     35 H7          -1.5100     0.7940     4.9290 ha         1 FPF       0.352000
     36 H10          1.2160     0.9020     5.8380 hc         1 FPF       0.049033
     37 H10A         0.2780    -0.5800     5.6080 hc         1 FPF       0.049033
     38 H10B         0.9040    -0.1690     7.2110 hc         1 FPF       0.049033
     39 H9          -1.9180     1.9160     8.1280 hc         1 FPF       0.057200
     40 H9A         -0.4870     1.0470     8.7000 hc         1 FPF       0.057200
     41 H11         -2.9930    -0.2350     7.5480 hc         1 FPF       0.016200
     42 H11A        -1.5620    -1.1040     8.1210 hc         1 FPF       0.016200
     43 H12         -2.4970    -1.1190     9.1670 ha         1 FPF       0.249000
     44 H14         -4.5240    -1.5210     8.2060 hc         1 FPF       0.026700
     45 H14A        -5.8990    -0.8840     9.1190 hc         1 FPF       0.026700
     46 H14B        -4.9810     0.1810     8.0460 hc         1 FPF       0.026700
     47 H15         -3.7450     0.1230    11.9410 hc         1 FPF       0.026700
     48 H15A        -5.2480     0.7380    11.2400 hc         1 FPF       0.026700
     49 H15B        -5.0700    -0.9900    11.5730 hc         1 FPF       0.026700
@<TRIPOS>BOND
     1     2     1 1
     2     1     3 1
     3     1    26 1
     4     1    27 1
     5    18     2 1
     6     5     3 2
     7     3     4 1
     8     6     5 1
     9     5     7 1
    10     6    28 1
    11     6    29 1
    12     6    30 1
    13     8     7 1
    14     7    31 1
    15     7    32 1
    16     9     8 1
    17     8    33 1
    18     8    34 1
    19    10     9 2
    20     9    35 1
    21    12    10 1
    22    10    11 1
    23    11    36 1
    24    11    37 1
    25    11    38 1
    26    13    12 1
    27    12    39 1
    28    12    40 1
    29    13    14 1
    30    13    41 1
    31    13    42 1
    32    15    14 2
    33    14    43 1
    34    17    15 1
    35    15    16 1
    36    16    44 1
    37    16    45 1
    38    16    46 1
    39    17    47 1
    40    17    48 1
    41    17    49 1
    42    19    18 1
    43    20    18 1
    44    18    21 1
    45    22    21 1
    46    25    22 1
    47    22    23 1
    48    22    24 1
@<TRIPOS>SUBSTRUCTURE
     1 FPF         1 TEMP              0 ****  ****    0 ROOT
