@<TRIPOS>MOLECULE
molecule
   40    39     1     0     0
SMALL
bcc


@<TRIPOS>ATOM
      1 C9           0.0000     0.0000     0.0000 c3         1 FPG      -0.084600
      2 C7           1.5290     0.0000     0.0000 c3         1 FPG      -0.075700
      3 C6           2.1180     0.0000     1.4230 c3         1 FPG      -0.070400
      4 C8           2.0440    -1.2170    -0.7740 c3         1 FPG      -0.084600
      5 C2           2.5420     2.1550     6.0120 c3         1 FPG       0.148600
      6 C1           2.1600     0.9290     6.8270 c3         1 FPG      -0.123100
      7 C10          0.3270     2.3270     4.7780 c3         1 FPG      -0.080100
      8 C5           1.6820     1.2050     2.2640 c3         1 FPG      -0.051400
      9 C4           2.2790     1.1340     3.6740 c3         1 FPG      -0.124400
     10 F            2.1930     3.2490     6.7540 f          1 FPG      -0.230300
     11 C3           1.8510     2.2660     4.6370 c3         1 FPG       0.180800
     12 O1           2.2470     3.5010     4.0230 os         1 FPG      -0.545200
     13 PA           3.8050     3.7720     3.7250 p5         1 FPG       1.342800
     14 O1A          4.4400     2.7710     2.8040 o          1 FPG      -0.837000
     15 O2A          3.8630     5.2990     3.1920 o          1 FPG      -0.837000
     16 O3A          4.4980     3.8630     5.1830 os         1 FPG      -0.692800
     17 PB           6.0080     4.2360     5.6190 p5         1 FPG       1.263900
     18 O2B          6.8760     3.0140     5.0150 o          1 FPG      -0.940167
     19 O3B          6.4580     5.6060     5.2060 o          1 FPG      -0.940167
     20 O1B          6.0170     3.9570     7.2100 o          1 FPG      -0.940167
     21 H91         -0.3610    -0.6590     0.7810 hc         1 FPG       0.019033
     22 H92         -0.3610     1.0050     0.1800 hc         1 FPG       0.019033
     23 H93         -0.3610    -0.3470    -0.9610 hc         1 FPG       0.019033
     24 H7           1.8680     0.8950    -0.5080 hc         1 FPG       0.057700
     25 H61          3.1990     0.0010     1.3500 hc         1 FPG       0.040200
     26 H62          1.8050    -0.9060     1.9270 hc         1 FPG       0.040200
     27 H81          3.1270    -1.2350    -0.7390 hc         1 FPG       0.019033
     28 H82          1.6530    -2.1220    -0.3270 hc         1 FPG       0.019033
     29 H83          1.7180    -1.1530    -1.8060 hc         1 FPG       0.019033
     30 H2           3.6150     2.1580     5.8650 h1         1 FPG       0.158700
     31 H11          1.6870     1.2410     7.7500 hc         1 FPG       0.019700
     32 H12          1.4720     0.3160     6.2570 hc         1 FPG       0.019700
     33 H13          3.0510     0.3550     7.0540 hc         1 FPG       0.019700
     34 H101         0.0690     2.8850     5.6700 hc         1 FPG       0.015367
     35 H102        -0.0970     2.8170     3.9100 hc         1 FPG       0.015367
     36 H103        -0.0690     1.3210     4.8540 hc         1 FPG       0.015367
     37 H51          0.6010     1.2170     2.3360 hc         1 FPG       0.039700
     38 H52          2.0170     2.1150     1.7820 hc         1 FPG       0.039700
     39 H41          3.3590     1.1540     3.5860 hc         1 FPG       0.061700
     40 H42          1.9910     0.1870     4.1160 hc         1 FPG       0.061700
@<TRIPOS>BOND
     1     1     2 1
     2     1    21 1
     3     1    22 1
     4     1    23 1
     5     2     4 1
     6     2     3 1
     7     2    24 1
     8     3     8 1
     9     3    25 1
    10     3    26 1
    11     4    27 1
    12     4    28 1
    13     4    29 1
    14     5    10 1
    15     5    11 1
    16     5     6 1
    17     5    30 1
    18     6    31 1
    19     6    32 1
    20     6    33 1
    21     7    11 1
    22     7    34 1
    23     7    35 1
    24     7    36 1
    25     8     9 1
    26     8    37 1
    27     8    38 1
    28     9    11 1
    29     9    39 1
    30     9    40 1
    31    11    12 1
    32    12    13 1
    33    13    16 1
    34    13    14 1
    35    13    15 1
    36    16    17 1
    37    17    19 1
    38    17    20 1
    39    17    18 1
@<TRIPOS>SUBSTRUCTURE
     1 FPG         1 TEMP              0 ****  ****    0 ROOT
