@<TRIPOS>MOLECULE
FPG
   40    39     1     0     0
SMALL
bcc


@<TRIPOS>ATOM
      1 C9          0.5540   -0.0570   -0.0050 c3        1 FPG     -0.076100
      2 C7          1.9740    0.2150    0.4460 c3        1 FPG     -0.076700
      3 C6          2.1270    0.0790    1.9540 c3        1 FPG     -0.098400
      4 C8          2.9380   -0.7130   -0.2630 c3        1 FPG     -0.076100
      5 C2          2.5220    2.6660    6.1410 c3        1 FPG      0.069600
      6 C1          2.4110    1.3630    6.9300 c3        1 FPG     -0.097100
      7 C10         0.1950    2.7430    5.1440 c3        1 FPG     -0.097100
      8 C5          1.4600    1.2170    2.6990 c3        1 FPG     -0.083400
      9 C4          1.9430    1.2710    4.1320 c3        1 FPG     -0.140400
     10 F           2.1280    3.7310    6.9500 f         1 FPG     -0.297300
     11 C3          1.6990    2.6400    4.8020 c3        1 FPG      0.288800
     12 O1          1.9800    3.7490    4.0320 os        1 FPG     -0.617200
     13 PA          3.2950    4.2230    3.0570 p5        1 FPG      1.609800
     14 O1A         2.7760    3.9910    1.6790 o         1 FPG     -0.914500
     15 O2A         3.5530    5.6300    3.4580 o         1 FPG     -0.914500
     16 O3A         4.3800    3.1860    3.5170 os        1 FPG     -0.827800
     17 PB          5.5380    1.9620    3.9930 p5        1 FPG      1.465900
     18 O2B         6.8630    2.4080    3.4480 o         1 FPG     -0.955500
     19 O3B         5.4060    1.9760    5.4950 o         1 FPG     -0.955500
     20 O1B         4.9740    0.7080    3.3690 o         1 FPG     -0.955500
     21 H91         0.4570    0.0690   -1.1120 hc        1 FPG      0.007533
     22 H92        -0.1450    0.6530    0.4980 hc        1 FPG      0.007533
     23 H93         0.2470   -1.1000    0.2530 hc        1 FPG      0.007533
     24 H7          2.2410    1.2820    0.1820 hc        1 FPG      0.100700
     25 H61         1.7070   -0.9070    2.2840 hc        1 FPG      0.069200
     26 H62         3.2330    0.1030    2.2190 hc        1 FPG      0.069200
     27 H81         2.7110   -1.7800   -0.0220 hc        1 FPG      0.007533
     28 H82         3.9810   -0.4860    0.0690 hc        1 FPG      0.007533
     29 H83         2.8720   -0.5850   -1.3710 hc        1 FPG      0.007533
     30 H2          3.6360    2.7870    5.8620 h1        1 FPG      0.194700
     31 H11         1.3590    0.9970    7.0020 hc        1 FPG      0.014700
     32 H12         3.0490    0.5980    6.4250 hc        1 FPG      0.014700
     33 H13         2.7950    1.5190    7.9680 hc        1 FPG      0.014700
     34 H101       -0.0020    3.7080    5.6650 hc        1 FPG      0.001033
     35 H102       -0.3980    2.7150    4.2000 hc        1 FPG      0.001033
     36 H103       -0.1240    1.9000    5.8010 hc        1 FPG      0.001033
     37 H51         0.3440    1.1110    2.6600 hc        1 FPG      0.045200
     38 H52         1.7420    2.2020    2.2100 hc        1 FPG      0.045200
     39 H41         3.0650    1.0650    4.1450 hc        1 FPG      0.067200
     40 H42         1.4310    0.4760    4.7330 hc        1 FPG      0.067200
@<TRIPOS>BOND
     1    1    2 1   
     2    1   21 1   
     3    1   22 1   
     4    1   23 1   
     5    2    3 1   
     6    2    4 1   
     7    2   24 1   
     8    3    8 1   
     9    3   25 1   
    10    3   26 1   
    11    4   27 1   
    12    4   28 1   
    13    4   29 1   
    14    5    6 1   
    15    5   10 1   
    16    5   11 1   
    17    5   30 1   
    18    6   31 1   
    19    6   32 1   
    20    6   33 1   
    21    7   11 1   
    22    7   34 1   
    23    7   35 1   
    24    7   36 1   
    25    8    9 1   
    26    8   37 1   
    27    8   38 1   
    28    9   11 1   
    29    9   39 1   
    30    9   40 1   
    31   11   12 1   
    32   12   13 1   
    33   13   14 1   
    34   13   15 1   
    35   13   16 1   
    36   16   17 1   
    37   17   18 1   
    38   17   19 1   
    39   17   20 1   
@<TRIPOS>SUBSTRUCTURE
     1 FPG         1 TEMP              0 ****  ****    0 ROOT
