@<TRIPOS>MOLECULE
FPH
   35    38     1     0     0
SMALL
bcc


@<TRIPOS>ATOM
      1 O12         0.2420   -0.5340    0.0130 oh        1 FPH     -0.446200
      2 N07         1.3320    0.2290   -0.0240 na        1 FPH      0.075500
      3 C01         2.1980    0.1170    1.1190 ca        1 FPH     -0.183500
      4 C06         1.9130    0.1120    2.4840 ca        1 FPH     -0.071000
      5 C05         3.0040    0.1410    3.3540 ca        1 FPH     -0.235300
      6 C04         4.3150    0.1830    2.8340 ca        1 FPH      0.387200
      7 N03         4.6220    0.1870    1.5230 nb        1 FPH     -0.626000
      8 C02         3.5760    0.1380    0.6760 ca        1 FPH      0.429100
      9 C08         3.5410    0.0920   -0.7970 cc        1 FPH     -0.124000
     10 C24         4.7210    0.0660   -1.6310 ca        1 FPH     -0.054800
     11 C25         5.7900    0.9390   -1.3770 ca        1 FPH     -0.077500
     12 C26         6.9360    0.9070   -2.1640 ca        1 FPH     -0.172500
     13 C27         7.0260   -0.0160   -3.2230 ca        1 FPH      0.132900
     14 F32         8.1390   -0.0530   -3.9930 f         1 FPH     -0.139900
     15 C28         5.9630   -0.9010   -3.4820 ca        1 FPH     -0.172500
     16 C29         4.8240   -0.8530   -2.6880 ca        1 FPH     -0.077500
     17 C13         2.2090    0.0540   -1.1780 cd        1 FPH     -0.028300
     18 C14         1.6550   -0.0080   -2.5230 ca        1 FPH     -0.012800
     19 C19         0.6680   -0.9490   -2.8520 ca        1 FPH     -0.222800
     20 C18         0.1710   -0.9670   -4.1670 ca        1 FPH      0.388200
     21 N17         0.5830   -0.1240   -5.1330 nb        1 FPH     -0.655000
     22 C16         1.5270    0.7780   -4.8010 ca        1 FPH      0.388200
     23 C15         2.0930    0.8780   -3.5180 ca        1 FPH     -0.222800
     24 H12        -0.5000    0.0840   -0.1500 ho        1 FPH      0.430000
     25 H06         0.8790    0.0810    2.8560 ha        1 FPH      0.150000
     26 H05         2.8480    0.1310    4.4410 ha        1 FPH      0.147000
     27 H04         5.1840    0.2140    3.5170 h4        1 FPH      0.026100
     28 H25         5.7260    1.6540   -0.5420 ha        1 FPH      0.148000
     29 H26         7.7730    1.5910   -1.9650 ha        1 FPH      0.150500
     30 H28         6.0440   -1.6230   -4.3070 ha        1 FPH      0.150500
     31 H29         3.9920   -1.5460   -2.8870 ha        1 FPH      0.148000
     32 H19         0.2920   -1.6570   -2.1000 ha        1 FPH      0.158000
     33 H18        -0.6030   -1.6970   -4.4650 h4        1 FPH      0.026600
     34 H16         1.8480    1.4590   -5.6110 h4        1 FPH      0.026600
     35 H15         2.8630    1.6310   -3.3020 ha        1 FPH      0.158000
@<TRIPOS>BOND
     1    1    2 1   
     2    1   24 1   
     3    2    3 1   
     4    2   17 1   
     5    3    4 ar  
     6    3    8 ar  
     7    4    5 ar  
     8    4   25 1   
     9    5    6 ar  
    10    5   26 1   
    11    6    7 ar  
    12    6   27 1   
    13    7    8 ar  
    14    8    9 1   
    15    9   10 1   
    16    9   17 2   
    17   10   11 ar  
    18   10   16 ar  
    19   11   12 ar  
    20   11   28 1   
    21   12   13 ar  
    22   12   29 1   
    23   13   14 1   
    24   13   15 ar  
    25   15   16 ar  
    26   15   30 1   
    27   16   31 1   
    28   17   18 1   
    29   18   19 ar  
    30   18   23 ar  
    31   19   20 ar  
    32   19   32 1   
    33   20   21 ar  
    34   20   33 1   
    35   21   22 ar  
    36   22   23 ar  
    37   22   34 1   
    38   23   35 1   
@<TRIPOS>SUBSTRUCTURE
     1 FPH         1 TEMP              0 ****  ****    0 ROOT
