@<TRIPOS>MOLECULE
molecule
   35    38     1     0     0
SMALL
bcc


@<TRIPOS>ATOM
      1 O12          0.0000     0.0000     0.0000 oh         1 FPH      -0.384200
      2 N07          1.4160     0.0000     0.0000 na         1 FPH       0.030500
      3 C01          2.2050     0.0000     1.1270 ca         1 FPH      -0.153500
      4 C06          1.9160     0.0010     2.4900 ca         1 FPH      -0.103000
      5 C05          2.9720     0.0020     3.3840 ca         1 FPH      -0.236300
      6 C04          4.2740     0.0020     2.9080 ca         1 FPH       0.405200
      7 N03          4.5290     0.0010     1.6170 nb         1 FPH      -0.644000
      8 C02          3.5500     0.0010     0.7180 ca         1 FPH       0.439100
      9 C08          3.5290    -0.0000    -0.7520 cc         1 FPH      -0.189000
     10 C24          4.7030    -0.0000    -1.6520 ca         1 FPH      -0.029800
     11 C25          5.5540     1.1030    -1.6940 ca         1 FPH      -0.083000
     12 C26          6.6470     1.0970    -2.5350 ca         1 FPH      -0.170000
     13 C27          6.9010    -0.0030    -3.3380 ca         1 FPH       0.133900
     14 F32          7.9730    -0.0030    -4.1610 f          1 FPH      -0.142900
     15 C28          6.0590    -1.1020    -3.3000 ca         1 FPH      -0.170000
     16 C29          4.9660    -1.1090    -2.4590 ca         1 FPH      -0.083000
     17 C13          2.2020    -0.0060    -1.1260 cd         1 FPH       0.038700
     18 C14          1.7050    -0.0080    -2.5150 ca         1 FPH      -0.013800
     19 C19          0.7820    -0.9680    -2.9490 ca         1 FPH      -0.226300
     20 C18          0.3460    -0.9330    -4.2570 ca         1 FPH       0.416700
     21 N17          0.7860    -0.0130    -5.0940 nb         1 FPH      -0.683000
     22 C16          1.6550     0.9100    -4.7270 ca         1 FPH       0.416700
     23 C15          2.1400     0.9540    -3.4380 ca         1 FPH      -0.226300
     24 H12         -0.3140     0.8470     0.2710 ho         1 FPH       0.412000
     25 H06          0.8910     0.0020     2.8420 ha         1 FPH       0.140000
     26 H05          2.7830     0.0020     4.4500 ha         1 FPH       0.143000
     27 H04          5.0980     0.0020     3.6120 h4         1 FPH       0.028100
     28 H25          5.3570     1.9640    -1.0670 ha         1 FPH       0.142500
     29 H26          7.3090     1.9540    -2.5690 ha         1 FPH       0.145500
     30 H28          6.2630    -1.9610    -3.9280 ha         1 FPH       0.145500
     31 H29          4.3090    -1.9690    -2.4300 ha         1 FPH       0.142500
     32 H19          0.4160    -1.7260    -2.2670 ha         1 FPH       0.150500
     33 H18         -0.3670    -1.6710    -4.6010 h4         1 FPH       0.027600
     34 H16          1.9870     1.6480    -5.4480 h4         1 FPH       0.027600
     35 H15          2.8530     1.7150    -3.1440 ha         1 FPH       0.150500
@<TRIPOS>BOND
     1     1     2 1
     2     1    24 1
     3     2     3 1
     4     2    17 1
     5     3     4 ar
     6     3     8 ar
     7     4     5 ar
     8     4    25 1
     9     5     6 ar
    10     5    26 1
    11     6     7 ar
    12     6    27 1
    13     7     8 ar
    14     8     9 1
    15     9    10 1
    16     9    17 2
    17    10    11 ar
    18    10    16 ar
    19    11    12 ar
    20    11    28 1
    21    12    13 ar
    22    12    29 1
    23    13    14 1
    24    13    15 ar
    25    15    16 ar
    26    15    30 1
    27    16    31 1
    28    17    18 1
    29    18    19 ar
    30    18    23 ar
    31    19    20 ar
    32    19    32 1
    33    20    21 ar
    34    20    33 1
    35    21    22 ar
    36    22    23 ar
    37    22    34 1
    38    23    35 1
@<TRIPOS>SUBSTRUCTURE
     1 FPH         1 TEMP              0 ****  ****    0 ROOT
