@<TRIPOS>MOLECULE
molecule
   19    19     1     0     0
SMALL
bcc


@<TRIPOS>ATOM
      1 N            0.0000     0.0000     0.0000 n          1 FPI      -0.501800
      2 C2           1.4690     0.0000     0.0000 c3         1 FPI       0.104500
      3 C3           1.9610     0.0000     1.4510 c3         1 FPI      -0.099400
      4 C4           1.3320    -1.1770     2.1980 c3         1 FPI      -0.080400
      5 C5          -0.1900    -1.0240     2.2040 c3         1 FPI      -0.099400
      6 C6          -0.7070    -1.0320     0.7690 c3         1 FPI       0.104500
      7 C7          -0.6860     0.9330    -0.6900 c          1 FPI       0.661900
      8 O           -1.8980     0.9230    -0.6820 o          1 FPI      -0.616100
      9 H21          1.8310     0.8870    -0.5060 h1         1 FPI       0.054200
     10 H22          1.8310    -0.8870    -0.5060 h1         1 FPI       0.054200
     11 H31          3.0400    -0.0990     1.4650 hc         1 FPI       0.050200
     12 H32          1.6710     0.9280     1.9300 hc         1 FPI       0.050200
     13 H41          1.6960    -1.1900     3.2190 hc         1 FPI       0.043700
     14 H42          1.5990    -2.1020     1.7020 hc         1 FPI       0.043700
     15 H51         -0.6330    -1.8490     2.7510 hc         1 FPI       0.050200
     16 H52         -0.4570    -0.0860     2.6770 hc         1 FPI       0.050200
     17 H61         -0.5230    -2.0030     0.3240 h1         1 FPI       0.054200
     18 H62         -1.7690    -0.8220     0.7660 h1         1 FPI       0.054200
     19 H7          -0.1540     1.6760    -1.2730 h5         1 FPI       0.022200
@<TRIPOS>BOND
     1     1     2 1
     2     1     6 1
     3     1     7 1
     4     2     3 1
     5     2     9 1
     6     2    10 1
     7     3     4 1
     8     3    11 1
     9     3    12 1
    10     4     5 1
    11     4    13 1
    12     4    14 1
    13     5     6 1
    14     5    15 1
    15     5    16 1
    16     6    17 1
    17     6    18 1
    18     7     8 2
    19     7    19 1
@<TRIPOS>SUBSTRUCTURE
     1 FPI         1 TEMP              0 ****  ****    0 ROOT
