@<TRIPOS>MOLECULE
molecule
   45    47     1     0     0
SMALL
bcc


@<TRIPOS>ATOM
      1 C4           0.0000     0.0000     0.0000 cc         1 FPJ       0.448700
      2 C5           0.6030     0.0090     2.0840 ca         1 FPJ      -0.207200
      3 C6           0.7330     0.0110     3.4820 ca         1 FPJ       0.779200
      4 C11         -2.5340     0.9110    -4.6600 c          1 FPJ       0.664100
      5 C7           3.0270    -0.0030     3.2360 ca         1 FPJ       0.723900
      6 C8           1.7750     0.0000     1.3080 ca         1 FPJ       0.473800
      7 C9           2.6530    -1.4460    -1.5470 c3         1 FPJ       0.086100
      8 C10          2.9670    -1.3200    -3.0570 c3         1 FPJ       0.083100
      9 C12         -3.8490     0.4110    -4.1210 c3         1 FPJ      -0.175400
     10 C13         -4.3120     1.3200    -2.9800 c3         1 FPJ      -0.076100
     11 N1          -1.9330     0.2620    -5.6760 ns         1 FPJ      -0.661900
     12 N2           1.3630     0.0000     0.0000 na         1 FPJ      -0.244000
     13 C3           2.2300    -0.0000    -1.1820 c3         1 FPJ       0.255800
     14 N3          -0.4450     0.0050     1.2240 nd         1 FPJ      -0.607100
     15 O1P         -0.6830     2.3070    -6.8150 o          1 FPJ      -0.797000
     16 P           -0.5000     0.8060    -6.2630 p5         1 FPJ       1.283800
     17 O2P         -0.0530    -0.0740    -7.3670 o          1 FPJ      -0.797000
     18 O3           0.6000     0.7970    -5.0890 os         1 FPJ      -0.550200
     19 C2           2.2080    -0.0530    -3.4970 c3         1 FPJ       0.123100
     20 O4           1.5000     0.4410    -2.3470 os         1 FPJ      -0.385600
     21 N4           1.9540     0.0050     4.0060 nb         1 FPJ      -0.843000
     22 N5           2.9540    -0.0070     1.9210 nb         1 FPJ      -0.772000
     23 N6          -0.3860     0.0200     4.2980 nv         1 FPJ      -0.994500
     24 O5           3.8170    -1.8360    -0.8150 oh         1 FPJ      -0.563800
     25 O6           4.3710    -1.1580    -3.2650 oh         1 FPJ      -0.575800
     26 O7          -2.0180     1.8990    -4.1810 o          1 FPJ      -0.579100
     27 H1          -0.6220    -0.0040    -0.8870 h5         1 FPJ       0.101800
     28 H2           4.0040    -0.0080     3.7030 h5         1 FPJ       0.054100
     29 H3           1.8350    -2.1370    -1.3820 h1         1 FPJ       0.052700
     30 H4           2.5960    -2.1860    -3.5930 h1         1 FPJ       0.046700
     31 H5          -4.5900     0.4180    -4.9110 hc         1 FPJ       0.045700
     32 H6          -3.7260    -0.5990    -3.7500 hc         1 FPJ       0.045700
     33 H7          -4.4410     2.3290    -3.3530 hc         1 FPJ       0.035367
     34 H8          -3.5680     1.3190    -2.1920 hc         1 FPJ       0.035367
     35 H9          -5.2540     0.9570    -2.5880 hc         1 FPJ       0.035367
     36 H10         -2.3830    -0.5220    -6.1050 hn         1 FPJ       0.304500
     37 H11          3.1020     0.6210    -1.0230 h2         1 FPJ       0.110700
     38 H13          1.7380    -0.8890    -5.4200 h1         1 FPJ       0.023700
     39 H14          0.4540    -1.0640    -4.2170 h1         1 FPJ       0.023700
     40 H15          2.9110     0.6950    -3.8440 h1         1 FPJ       0.094700
     41 H16         -0.2880     0.1820     5.2800 hn         1 FPJ       0.444800
     42 H17         -1.2930    -0.1400     3.9050 hn         1 FPJ       0.444800
     43 H18          3.7920    -2.7660    -0.6570 ho         1 FPJ       0.396000
     44 H19          4.6790    -1.8200    -3.8620 ho         1 FPJ       0.400000
     45 C1           1.2150    -0.4000    -4.6070 c3         1 FPJ       0.211400
@<TRIPOS>BOND
     1    23     3 1
     2    14     2 1
     3    14     1 2
     4     3     2 ar
     5     3    21 ar
     6     2     6 ar
     7     1    12 1
     8    24     7 1
     9     7     8 1
    10     7    13 1
    11    21     5 ar
    12    12     6 1
    13    12    13 1
    14     6    22 ar
    15     8    25 1
    16     8    19 1
    17     5    22 ar
    18    13    20 1
    19    45    19 1
    20    45    18 1
    21    19    20 1
    22    18    16 1
    23    17    16 1
    24    16    11 1
    25    16    15 1
    26    11     4 1
    27     4    26 2
    28     4     9 1
    29     9    10 1
    30     1    27 1
    31     5    28 1
    32     7    29 1
    33     8    30 1
    34     9    31 1
    35     9    32 1
    36    10    33 1
    37    10    34 1
    38    10    35 1
    39    11    36 1
    40    13    37 1
    41    45    38 1
    42    45    39 1
    43    19    40 1
    44    23    41 1
    45    23    42 1
    46    24    43 1
    47    25    44 1
@<TRIPOS>SUBSTRUCTURE
     1 FPJ         1 TEMP              0 ****  ****    0 ROOT
