@<TRIPOS>MOLECULE
FPJ
   45    47     1     0     0
SMALL
bcc


@<TRIPOS>ATOM
      1 C4           0.0000     0.0000     0.0000 cc         1 FPJ       0.273700
      2 C5           0.6030     0.0090     2.0840 ca         1 FPJ      -0.238200
      3 C6           0.7330     0.0110     3.4820 ca         1 FPJ       0.585200
      4 C11         -2.5340     0.9110    -4.6600 c          1 FPJ       0.621100
      5 C7           3.0270    -0.0030     3.2360 ca         1 FPJ       0.667900
      6 C8           1.7750     0.0000     1.3080 ca         1 FPJ       0.264800
      7 C9           2.6530    -1.4460    -1.5470 c3         1 FPJ       0.122100
      8 C10          2.9670    -1.3200    -3.0570 c3         1 FPJ       0.125100
      9 C12         -3.8490     0.4110    -4.1210 c3         1 FPJ      -0.120400
     10 C13         -4.3120     1.3200    -2.9800 c3         1 FPJ       0.021900
     11 N1          -1.9330     0.2620    -5.6760 ns         1 FPJ      -0.302900
     12 N2           1.3630     0.0000     0.0000 na         1 FPJ       0.223000
     13 C3           2.2300    -0.0000    -1.1820 c3         1 FPJ       0.140800
     14 N3          -0.4450     0.0050     1.2240 nd         1 FPJ      -0.522100
     15 O1P         -0.6830     2.3070    -6.8150 o          1 FPJ      -0.617000
     16 P           -0.5000     0.8060    -6.2630 p5         1 FPJ       0.744800
     17 O2P         -0.0530    -0.0740    -7.3670 o          1 FPJ      -0.617000
     18 O3           0.6000     0.7970    -5.0890 os         1 FPJ      -0.437200
     19 C2           2.2080    -0.0530    -3.4970 c3         1 FPJ       0.145100
     20 O4           1.5000     0.4410    -2.3470 os         1 FPJ      -0.367600
     21 N4           1.9540     0.0050     4.0060 nb         1 FPJ      -0.754000
     22 N5           2.9540    -0.0070     1.9210 nb         1 FPJ      -0.656000
     23 N6          -0.3860     0.0200     4.2980 nv         1 FPJ      -0.501500
     24 O5           3.8170    -1.8360    -0.8150 oh         1 FPJ      -0.544800
     25 O6           4.3710    -1.1580    -3.2650 oh         1 FPJ      -0.557800
     26 O7          -2.0180     1.8990    -4.1810 o          1 FPJ      -0.634100
     27 H1          -0.6220    -0.0040    -0.8870 h5         1 FPJ       0.054800
     28 H2           4.0040    -0.0080     3.7030 h5         1 FPJ      -0.010900
     29 H3           1.8350    -2.1370    -1.3820 h1         1 FPJ       0.015700
     30 H4           2.5960    -2.1860    -3.5930 h1         1 FPJ       0.012700
     31 H5          -4.5900     0.4180    -4.9110 hc         1 FPJ       0.011200
     32 H6          -3.7260    -0.5990    -3.7500 hc         1 FPJ       0.011200
     33 H7          -4.4410     2.3290    -3.3530 hc         1 FPJ      -0.000300
     34 H8          -3.5680     1.3190    -2.1920 hc         1 FPJ      -0.000300
     35 H9          -5.2540     0.9570    -2.5880 hc         1 FPJ      -0.000300
     36 H10         -2.3830    -0.5220    -6.1050 hn         1 FPJ       0.174500
     37 H11          3.1020     0.6210    -1.0230 h2         1 FPJ       0.066700
     38 H13          1.7380    -0.8890    -5.4200 h1         1 FPJ      -0.021800
     39 H14          0.4540    -1.0640    -4.2170 h1         1 FPJ      -0.021800
     40 H15          2.9110     0.6950    -3.8440 h1         1 FPJ       0.052700
     41 H16         -0.2880     0.1820     5.2800 hn         1 FPJ       0.272300
     42 H17         -1.2930    -0.1400     3.9050 hn         1 FPJ       0.272300
     43 H18          3.7920    -2.7660    -0.6570 ho         1 FPJ       0.380000
     44 H19          4.6790    -1.8200    -3.8620 ho         1 FPJ       0.384000
     45 C1           1.2150    -0.4000    -4.6070 c3         1 FPJ       0.279400
@<TRIPOS>BOND
     1     1    12 1   
     2     1    14 2   
     3     1    27 1   
     4     2     3 ar  
     5     2     6 ar  
     6     2    14 1   
     7     3    21 ar  
     8     3    23 1   
     9     4     9 1   
    10     4    11 1   
    11     4    26 2   
    12     5    21 ar  
    13     5    22 ar  
    14     5    28 1   
    15     6    12 1   
    16     6    22 ar  
    17     7     8 1   
    18     7    13 1   
    19     7    24 1   
    20     7    29 1   
    21     8    19 1   
    22     8    25 1   
    23     8    30 1   
    24     9    10 1   
    25     9    31 1   
    26     9    32 1   
    27    10    33 1   
    28    10    34 1   
    29    10    35 1   
    30    11    16 1   
    31    11    36 1   
    32    12    13 1   
    33    13    20 1   
    34    13    37 1   
    35    15    16 1   
    36    16    17 1   
    37    16    18 1   
    38    18    45 1   
    39    19    20 1   
    40    19    40 1   
    41    19    45 1   
    42    23    41 1   
    43    23    42 1   
    44    24    43 1   
    45    25    44 1   
    46    38    45 1   
    47    39    45 1   
@<TRIPOS>SUBSTRUCTURE
     1 FPJ         1 TEMP              0 ****  ****    0 ROOT
