@<TRIPOS>MOLECULE
FPL
   24    25     1     0     0
SMALL
bcc


@<TRIPOS>ATOM
      1 C          -0.0950   -0.0520    0.2120 ca        1 FPL      0.156100
      2 F           3.3220    1.1510    0.6500 f         1 FPL     -0.134900
      3 O          -1.0010   -0.1550   -0.8120 oh        1 FPL     -0.486100
      4 C1          1.1550    0.5020   -0.0930 ca        1 FPL     -0.193000
      5 O1         -1.5840   -1.1490    1.7210 os        1 FPL     -0.259200
      6 C2          2.1120    0.6130    0.9290 ca        1 FPL      0.155900
      7 C3          1.8330    0.1730    2.2390 ca        1 FPL     -0.192000
      8 C4          0.5920   -0.3800    2.5290 ca        1 FPL     -0.083000
      9 C5         -0.3720   -0.4910    1.5230 ca        1 FPL     -0.012900
     10 C6         -2.4410   -0.5920    2.6700 ca        1 FPL      0.102100
     11 C7         -2.3470    0.7280    3.1240 ca        1 FPL     -0.164000
     12 C8         -3.2940    1.1950    4.0350 ca        1 FPL     -0.102500
     13 C9         -4.3160    0.3590    4.4820 ca        1 FPL     -0.152000
     14 C10        -4.3980   -0.9560    4.0200 ca        1 FPL     -0.102500
     15 C11        -3.4620   -1.4470    3.1140 ca        1 FPL     -0.164000
     16 HO         -1.8100   -0.5590   -0.4550 ho        1 FPL      0.441000
     17 H1          1.3740    0.8420   -1.1150 ha        1 FPL      0.171000
     18 H3          2.6010    0.2680    3.0190 ha        1 FPL      0.155000
     19 H4          0.3570   -0.7300    3.5460 ha        1 FPL      0.155000
     20 H7         -1.5370    1.3820    2.7700 ha        1 FPL      0.149500
     21 H8         -3.2310    2.2310    4.3990 ha        1 FPL      0.136500
     22 H9         -5.0600    0.7350    5.1990 ha        1 FPL      0.136000
     23 H10        -5.2050   -1.6140    4.3750 ha        1 FPL      0.136500
     24 H11        -3.5110   -2.4800    2.7420 ha        1 FPL      0.149500
@<TRIPOS>BOND
     1    1    3 1   
     2    1    4 ar  
     3    1    9 ar  
     4    2    6 1   
     5    3   16 1   
     6    4    6 ar  
     7    4   17 1   
     8    5    9 1   
     9    5   10 1   
    10    6    7 ar  
    11    7    8 ar  
    12    7   18 1   
    13    8    9 ar  
    14    8   19 1   
    15   10   11 ar  
    16   10   15 ar  
    17   11   12 ar  
    18   11   20 1   
    19   12   13 ar  
    20   12   21 1   
    21   13   14 ar  
    22   13   22 1   
    23   14   15 ar  
    24   14   23 1   
    25   15   24 1   
@<TRIPOS>SUBSTRUCTURE
     1 FPL         1 TEMP              0 ****  ****    0 ROOT
