@<TRIPOS>MOLECULE
molecule
   24    25     1     0     0
SMALL
bcc


@<TRIPOS>ATOM
      1 C            0.0000     0.0000     0.0000 ca         1 FPL       0.109100
      2 F            3.4280    -0.0010     1.1990 f          1 FPL      -0.139900
      3 O           -0.6810     0.0000    -1.1770 oh         1 FPL      -0.499100
      4 C1           1.3850     0.0000     0.0000 ca         1 FPL      -0.178000
      5 O1          -2.0530     0.0110     1.2120 os         1 FPL      -0.233200
      6 C2           2.0770     0.0000     1.1990 ca         1 FPL       0.114900
      7 C3           1.3870     0.0000     2.3990 ca         1 FPL      -0.143000
      8 C4           0.0040     0.0000     2.4040 ca         1 FPL      -0.173000
      9 C5          -0.6930     0.0060     1.2070 ca         1 FPL       0.109100
     10 C6          -2.6880     0.0220     2.4130 ca         1 FPL       0.092100
     11 C7          -3.0080     1.2290     3.0180 ca         1 FPL      -0.135500
     12 C8          -3.6530     1.2370     4.2400 ca         1 FPL      -0.120500
     13 C9          -3.9800     0.0440     4.8590 ca         1 FPL      -0.127000
     14 C10         -3.6610    -1.1590     4.2580 ca         1 FPL      -0.120500
     15 C11         -3.0220    -1.1730     3.0330 ca         1 FPL      -0.135500
     16 HO          -0.5900    -0.8410    -1.5930 ho         1 FPL       0.420000
     17 H1           1.9270     0.0300    -0.9380 ha         1 FPL       0.158000
     18 H3           1.9310    -0.0050     3.3360 ha         1 FPL       0.149000
     19 H4          -0.5330     0.0020     3.3450 ha         1 FPL       0.155000
     20 H7          -2.7520     2.1630     2.5340 ha         1 FPL       0.146000
     21 H8          -3.9040     2.1790     4.7130 ha         1 FPL       0.136500
     22 H9          -4.4830     0.0530     5.8190 ha         1 FPL       0.134000
     23 H10         -3.9200    -2.0920     4.7440 ha         1 FPL       0.136500
     24 H11         -2.7730    -2.1170     2.5630 ha         1 FPL       0.146000
@<TRIPOS>BOND
     1     1     3 1
     2     1     4 ar
     3     1     9 ar
     4     2     6 1
     5     4     6 ar
     6     5     9 1
     7     5    10 1
     8     6     7 ar
     9     7     8 ar
    10     8     9 ar
    11    10    11 ar
    12    10    15 ar
    13    11    12 ar
    14    12    13 ar
    15    13    14 ar
    16    14    15 ar
    17     3    16 1
    18     4    17 1
    19     7    18 1
    20     8    19 1
    21    11    20 1
    22    12    21 1
    23    13    22 1
    24    14    23 1
    25    15    24 1
@<TRIPOS>SUBSTRUCTURE
     1 FPL         1 TEMP              0 ****  ****    0 ROOT
