@<TRIPOS>MOLECULE
FPM
   33    35     1     0     0
SMALL
bcc


@<TRIPOS>ATOM
      1 C2           0.0000     0.0000     0.0000 c2         1 FPM       0.005400
      2 C6           1.6930     1.2490     2.8270 cy         1 FPM      -0.203700
      3 C5           1.1420    -0.1120     2.3860 cy         1 FPM       0.092800
      4 C7           2.6120     1.1600     1.6270 c          1 FPM       0.659500
      5 N4           2.0260     0.0000     1.2100 nj         1 FPM      -0.013000
      6 C3           1.3410     0.0000     0.0000 ce         1 FPM      -0.136600
      7 S1          -0.5360    -0.0490     1.6860 ss         1 FPM      -0.397700
      8 C31          2.0550     0.0000    -1.2220 c          1 FPM       0.969800
      9 O7           3.5140     1.8500     1.2010 o          1 FPM      -0.540500
     10 C61          2.4280     1.2090     4.1690 c3         1 FPM       0.214100
     11 O62          1.5210     0.8040     5.1970 oh         1 FPM      -0.588800
     12 C62          2.9740     2.6010     4.4910 c3         1 FPM      -0.034100
     13 C14         -0.8890     0.0390    -1.2160 c3         1 FPM       0.217300
     14 C15         -1.6200    -1.3070    -1.3750 c3         1 FPM      -0.053400
     15 C16         -3.1210    -0.9320    -1.3370 c3         1 FPM      -0.068400
     16 C17         -3.0880     0.5730    -1.7060 c3         1 FPM       0.207400
     17 O18         -1.8920     1.0570    -1.0540 os         1 FPM      -0.403600
     18 O32          3.3990     0.1250    -1.2200 o          1 FPM      -0.858300
     19 O31          1.4550    -0.1110    -2.2770 o          1 FPM      -0.858300
     20 H6           0.9640     2.0460     2.7400 hc         1 FPM       0.087700
     21 H5           1.3690    -0.9470     3.0370 h2         1 FPM       0.078700
     22 H61          3.2480     0.5030     4.1120 h1         1 FPM       0.004700
     23 HO62         1.9980     0.3670     5.8830 ho         1 FPM       0.381000
     24 H162         3.4670     2.5820     5.4560 hc         1 FPM       0.012033
     25 H262         2.1580     3.3130     4.5170 hc         1 FPM       0.012033
     26 H362         3.6860     2.8960     3.7290 hc         1 FPM       0.012033
     27 H14         -0.3000     0.2430    -2.1030 h1         1 FPM       0.129700
     28 H115        -1.3700    -1.7630    -2.3250 hc         1 FPM       0.026700
     29 H215        -1.3760    -1.9690    -0.5530 hc         1 FPM       0.026700
     30 H116        -3.6780    -1.4960    -2.0750 hc         1 FPM       0.012200
     31 H216        -3.5280    -1.0750    -0.3430 hc         1 FPM       0.012200
     32 H117        -3.0130     0.6990    -2.7790 h1         1 FPM      -0.003300
     33 H217        -3.9640     1.0790    -1.3160 h1         1 FPM      -0.003300
@<TRIPOS>BOND
     1     1     6 2   
     2     1     7 1   
     3     1    13 1   
     4     2     3 1   
     5     2     4 1   
     6     2    10 1   
     7     2    20 1   
     8     3     5 1   
     9     3     7 1   
    10     3    21 1   
    11     4     5 1   
    12     4     9 2   
    13     5     6 1   
    14     6     8 1   
    15     8    18 1   
    16     8    19 1   
    17    10    11 1   
    18    10    12 1   
    19    10    22 1   
    20    11    23 1   
    21    12    24 1   
    22    12    25 1   
    23    12    26 1   
    24    13    14 1   
    25    13    17 1   
    26    13    27 1   
    27    14    15 1   
    28    14    28 1   
    29    14    29 1   
    30    15    16 1   
    31    15    30 1   
    32    15    31 1   
    33    16    17 1   
    34    16    32 1   
    35    16    33 1   
@<TRIPOS>SUBSTRUCTURE
     1 FPM         1 TEMP              0 ****  ****    0 ROOT
