@<TRIPOS>MOLECULE
molecule
   13    13     1     0     0
SMALL
bcc


@<TRIPOS>ATOM
      1 C1           0.0000     0.0000     0.0000 ca         1 FPN       0.089100
      2 C2           1.3870     0.0000     0.0000 ca         1 FPN      -0.127500
      3 C3           2.0770     0.0000     1.1980 ca         1 FPN      -0.155000
      4 C4           1.3840     0.0000     2.3960 ca         1 FPN       0.124900
      5 C5           0.0010     0.0000     2.3970 ca         1 FPN      -0.155000
      6 C6          -0.6930     0.0050     1.2020 ca         1 FPN      -0.127500
      7 O1          -0.6800     0.0010    -1.1770 oh         1 FPN      -0.519100
      8 F1           2.0600    -0.0000     3.5660 f          1 FPN      -0.139900
      9 H2           1.9290    -0.0020    -0.9380 ha         1 FPN       0.147000
     10 H3           3.1600    -0.0000     1.1980 ha         1 FPN       0.148000
     11 H5          -0.5400     0.0020     3.3360 ha         1 FPN       0.148000
     12 H6          -1.7760     0.0050     1.2030 ha         1 FPN       0.147000
     13 HO1         -0.8390    -0.8870    -1.4490 ho         1 FPN       0.420000
@<TRIPOS>BOND
     1     1     2 ar
     2     1     6 ar
     3     1     7 1
     4     2     3 ar
     5     2     9 1
     6     3     4 ar
     7     3    10 1
     8     4     5 ar
     9     4     8 1
    10     5     6 ar
    11     5    11 1
    12     6    12 1
    13     7    13 1
@<TRIPOS>SUBSTRUCTURE
     1 FPN         1 TEMP              0 ****  ****    0 ROOT
