@<TRIPOS>MOLECULE
FPN
   13    13     1     0     0
SMALL
bcc


@<TRIPOS>ATOM
      1 C1          0.0750   -0.1240   -0.0380 ca        1 FPN      0.111100
      2 C2          1.4740    0.0110   -0.0220 ca        1 FPN     -0.161500
      3 C3          2.1380    0.0850    1.1940 ca        1 FPN     -0.128500
      4 C4          1.4080    0.0250    2.3980 ca        1 FPN      0.087900
      5 C5          0.0090   -0.1110    2.3750 ca        1 FPN     -0.128500
      6 C6         -0.6570   -0.1850    1.1560 ca        1 FPN     -0.161500
      7 O1         -0.5180   -0.1910   -1.2780 oh        1 FPN     -0.495100
      8 F1          2.0600    0.0970    3.5840 f         1 FPN     -0.141900
      9 H2          2.0240    0.0570   -0.9730 ha        1 FPN      0.147500
     10 H3          3.2320    0.1910    1.2280 ha        1 FPN      0.151000
     11 H5         -0.5500   -0.1570    3.3210 ha        1 FPN      0.151000
     12 H6         -1.7510   -0.2910    1.1320 ha        1 FPN      0.147500
     13 HO1        -1.4730   -0.2830   -1.1470 ho        1 FPN      0.420000
@<TRIPOS>BOND
     1    1    2 ar  
     2    1    6 ar  
     3    1    7 1   
     4    2    3 ar  
     5    2    9 1   
     6    3    4 ar  
     7    3   10 1   
     8    4    5 ar  
     9    4    8 1   
    10    5    6 ar  
    11    5   11 1   
    12    6   12 1   
    13    7   13 1   
@<TRIPOS>SUBSTRUCTURE
     1 FPN         1 TEMP              0 ****  ****    0 ROOT
