@<TRIPOS>MOLECULE
molecule
    5     4     1     0     0
SMALL
bcc


@<TRIPOS>ATOM
      1 P            0.0680     0.0000     0.0000 p5         1 FPO       1.187900
      2 O1           0.5900    -1.4770    -0.0010 o          1 FPO      -0.912500
      3 O2           0.5900     0.7370     1.2800 o          1 FPO      -0.912500
      4 O3           0.5900     0.7400    -1.2790 o          1 FPO      -0.912500
      5 F           -1.6020     0.0000     0.0000 f          1 FPO      -0.449400
@<TRIPOS>BOND
     1     1     2 1
     2     1     3 1
     3     1     4 1
     4     1     5 1
@<TRIPOS>SUBSTRUCTURE
     1 FPO         1 TEMP              0 ****  ****    0 ROOT
