@<TRIPOS>MOLECULE
FPO
    5     4     1     0     0
SMALL
bcc


@<TRIPOS>ATOM
      1 P           0.1640   -0.0010    0.0010 p5        1 FPO      1.355900
      2 O1          0.4810   -1.4830    0.0070 o         1 FPO     -0.970500
      3 O2          0.4930    0.7400    1.2810 o         1 FPO     -0.970500
      4 O3          0.5070    0.7310   -1.2810 o         1 FPO     -0.970500
      5 F          -1.4090    0.0120   -0.0080 f         1 FPO     -0.444400
@<TRIPOS>BOND
     1    1    2 1   
     2    1    3 1   
     3    1    4 1   
     4    1    5 1   
@<TRIPOS>SUBSTRUCTURE
     1 FPO         1 TEMP              0 ****  ****    0 ROOT
