@<TRIPOS>MOLECULE
molecule
   49    48     1     0     0
SMALL
bcc


@<TRIPOS>ATOM
      1 C1           0.0000     0.0000     0.0000 c3         1 FPP       0.166600
      2 O1           1.4290     0.0000     0.0000 os         1 FPP      -0.497200
      3 C2          -0.5020     0.0000     1.4210 c2         1 FPP      -0.501200
      4 C3          -1.4840     0.7940     1.7680 c2         1 FPP      -0.055400
      5 C4          -2.1860     1.6240     0.7250 c3         1 FPP      -0.116900
      6 C5          -1.9090     0.8780     3.2110 c3         1 FPP       0.011800
      7 C6          -1.1100     1.9770     3.9150 c3         1 FPP      -0.054200
      8 C7          -1.5370     2.0620     5.3580 c2         1 FPP      -0.545200
      9 C8          -0.6430     1.9740     6.3110 c2         1 FPP      -0.074400
     10 C10          0.8220     1.9160     5.9660 c3         1 FPP      -0.103900
     11 C9          -1.0810     1.9300     7.7530 c3         1 FPP      -0.012200
     12 C11         -1.3010     0.4770     8.1750 c3         1 FPP      -0.046200
     13 C12         -1.7380     0.4330     9.6160 c2         1 FPP      -0.161200
     14 C13         -2.8420    -0.1890     9.9470 c2         1 FPP      -0.170400
     15 C14         -3.3470    -0.1260    11.3670 c3         1 FPP      -0.043900
     16 C15         -3.6060    -0.9700     8.9100 c3         1 FPP      -0.043900
     17 PA           1.8940    -0.0000    -1.5410 p5         1 FPP       1.237800
     18 O1A          1.3690    -1.2090    -2.2150 o          1 FPP      -0.796000
     19 O2A          1.3230     1.3130    -2.2740 o          1 FPP      -0.796000
     20 O3A          3.5030     0.0000    -1.6160 os         1 FPP      -0.641800
     21 PB           3.8960    -0.0010    -3.1770 p5         1 FPP       1.188900
     22 O1B          3.3390     1.2070    -3.8260 o          1 FPP      -0.832167
     23 O2B          5.4980    -0.0010    -3.3270 o          1 FPP      -0.832167
     24 O3B          3.2910    -1.3150    -3.8830 o          1 FPP      -0.832167
     25 H11         -0.3610    -0.8850    -0.5110 h1         1 FPP       0.039700
     26 H12A        -0.3610     0.8850    -0.5110 h1         1 FPP       0.039700
     27 H2          -0.9930    -0.5640     0.6370 ha         1 FPP       0.347000
     28 H41         -3.0290     2.1320     1.1770 hc         1 FPP       0.038367
     29 H42         -2.5370     0.9800    -0.0720 hc         1 FPP       0.038367
     30 H43         -1.4970     2.3560     0.3220 hc         1 FPP       0.038367
     31 H51         -2.9660     1.1110     3.2620 hc         1 FPP       0.038200
     32 H52         -1.7240    -0.0710     3.6980 hc         1 FPP       0.038200
     33 H61         -1.2950     2.9270     3.4270 hc         1 FPP       0.034200
     34 H62         -0.0540     1.7440     3.8640 hc         1 FPP       0.034200
     35 H7          -1.1550     2.9230     4.8240 ha         1 FPP       0.277000
     36 H101         1.0740     2.7490     5.3210 hc         1 FPP       0.037033
     37 H102         1.0370     0.9860     5.4540 hc         1 FPP       0.037033
     38 H103         1.4100     1.9730     6.8740 hc         1 FPP       0.037033
     39 H91         -2.0050     2.4830     7.8670 hc         1 FPP       0.028700
     40 H92         -0.3150     2.3750     8.3760 hc         1 FPP       0.028700
     41 H111        -2.0670     0.0320     7.5520 hc         1 FPP       0.059700
     42 H112        -0.3760    -0.0760     8.0610 hc         1 FPP       0.059700
     43 H12         -1.1890     0.9930    10.3640 ha         1 FPP       0.106000
     44 H141        -4.4300    -0.1490    11.3660 hc         1 FPP       0.033200
     45 H142        -3.0050     0.7910    11.8310 hc         1 FPP       0.033200
     46 H143        -2.9680    -0.9750    11.9230 hc         1 FPP       0.033200
     47 H151        -2.9290    -1.6360     8.3890 hc         1 FPP       0.033200
     48 H152        -4.3820    -1.5500     9.3940 hc         1 FPP       0.033200
     49 H153        -4.0550    -0.2850     8.2010 hc         1 FPP       0.033200
@<TRIPOS>BOND
     1     1     2 1
     2     1     3 1
     3     1    25 1
     4     1    26 1
     5     2    17 1
     6     3     4 2
     7     3    27 1
     8     4     5 1
     9     4     6 1
    10     5    28 1
    11     5    29 1
    12     5    30 1
    13     6     7 1
    14     6    31 1
    15     6    32 1
    16     7     8 1
    17     7    33 1
    18     7    34 1
    19     8     9 2
    20     8    35 1
    21     9    10 1
    22     9    11 1
    23    10    36 1
    24    10    37 1
    25    10    38 1
    26    11    12 1
    27    11    39 1
    28    11    40 1
    29    12    13 1
    30    12    41 1
    31    12    42 1
    32    13    14 2
    33    13    43 1
    34    14    15 1
    35    14    16 1
    36    15    44 1
    37    15    45 1
    38    15    46 1
    39    16    47 1
    40    16    48 1
    41    16    49 1
    42    17    18 1
    43    17    19 1
    44    17    20 1
    45    20    21 1
    46    21    22 1
    47    21    23 1
    48    21    24 1
@<TRIPOS>SUBSTRUCTURE
     1 FPP         1 TEMP              0 ****  ****    0 ROOT
