@<TRIPOS>MOLECULE
molecule
   54    53     1     0     0
SMALL
bcc


@<TRIPOS>ATOM
      1 P            0.0000     0.0000     0.0000 p5         1 FPQ       1.234900
      2 C1           5.5530    -1.2630    -1.1320 c3         1 FPQ       0.155600
      3 C2           5.7890    -1.3940    -2.6140 c2         1 FPQ      -0.077200
      4 C3           6.4170    -2.4420    -3.0870 c2         1 FPQ      -0.234400
      5 C4           6.5740    -2.6180    -4.5750 c3         1 FPQ      -0.033900
      6 C5           6.9790    -3.4740    -2.1430 c3         1 FPQ       0.017800
      7 C6           5.9380    -4.5680    -1.9020 c3         1 FPQ      -0.084200
      8 C7           6.5020    -5.5980    -0.9580 c2         1 FPQ      -0.515200
      9 C8           6.4910    -6.8650    -1.2910 c2         1 FPQ      -0.026400
     10 C9           5.7930    -7.3090    -2.5500 c3         1 FPQ      -0.118900
     11 CX           2.3890    -0.9820     0.6880 c3         1 FPQ       0.249400
     12 OX           1.6100     0.0000     0.0000 os         1 FPQ      -0.562200
     13 CY           3.8760    -0.6880     0.4830 c3         1 FPQ       0.027100
     14 OY           4.2060    -0.8440    -0.8990 os         1 FPQ      -0.377600
     15 CZ           4.1740     0.7240     0.9140 c          1 FPQ       0.907600
     16 C10          7.1810    -7.8800    -0.4140 c3         1 FPQ       0.005800
     17 C11          6.1620    -8.5000     0.5450 c3         1 FPQ      -0.070200
     18 C12          6.8510    -9.5140     1.4220 c2         1 FPQ      -0.553200
     19 C13          6.9160    -9.3240     2.7170 c2         1 FPQ      -0.026400
     20 C14          6.3180    -8.0830     3.3270 c3         1 FPQ      -0.082400
     21 C15          7.5880   -10.3470     3.5950 c3         1 FPQ      -0.082400
     22 O1P         -0.4940     0.0000     1.3960 o          1 FPQ      -0.885500
     23 O1Z          4.0360     1.0760     2.2030 o          1 FPQ      -0.865800
     24 O2P         -0.5360     1.3150    -0.7590 o          1 FPQ      -0.885500
     25 O2Z          4.5370     1.5410     0.1010 o          1 FPQ      -0.865800
     26 O3P         -0.5360    -1.3150    -0.7590 o          1 FPQ      -0.885500
     27 H1           6.2350    -0.5290    -0.7210 h1         1 FPQ       0.019700
     28 H1A          5.7200    -2.2210    -0.6530 h1         1 FPQ       0.019700
     29 H2           5.3840    -0.6540    -3.2940 ha         1 FPQ       0.140000
     30 H4           5.6390    -2.9620    -5.0000 hc         1 FPQ       0.020700
     31 H4A          6.8470    -1.6700    -5.0230 hc         1 FPQ       0.020700
     32 H4B          7.3510    -3.3470    -4.7720 hc         1 FPQ       0.020700
     33 H5           7.8700    -3.9120    -2.5760 hc         1 FPQ       0.048200
     34 H5A          7.2310    -3.0010    -1.2010 hc         1 FPQ       0.048200
     35 H6           5.0470    -4.1290    -1.4680 hc         1 FPQ       0.048700
     36 H6A          5.6860    -5.0400    -2.8440 hc         1 FPQ       0.048700
     37 H7           5.4400    -5.3850    -0.9960 ha         1 FPQ       0.351000
     38 H9           5.8030    -8.3910    -2.6060 hc         1 FPQ       0.039367
     39 H9A          6.3040    -6.8980    -3.4110 hc         1 FPQ       0.039367
     40 H9B          4.7680    -6.9590    -2.5370 hc         1 FPQ       0.039367
     41 HX           2.1570    -0.9490     1.7460 h1         1 FPQ       0.006200
     42 HXA          2.1570    -1.9650     0.2980 h1         1 FPQ       0.006200
     43 HY           4.4650    -1.3790     1.0740 h1         1 FPQ      -0.012300
     44 H10          7.6140    -8.6560    -1.0330 hc         1 FPQ       0.057200
     45 H10A         7.9630    -7.3930     0.1550 hc         1 FPQ       0.057200
     46 H11          5.7290    -7.7230     1.1630 hc         1 FPQ       0.031700
     47 H11A         5.3800    -8.9870    -0.0250 hc         1 FPQ       0.031700
     48 H12          5.7780    -9.4140     1.3200 ha         1 FPQ       0.307000
     49 H14          6.7800    -7.2070     2.8890 hc         1 FPQ       0.040533
     50 H14A         5.2520    -8.0640     3.1350 hc         1 FPQ       0.040533
     51 H14B         6.4920    -8.0870     4.3960 hc         1 FPQ       0.040533
     52 H15          8.4240    -9.8880     4.1090 hc         1 FPQ       0.040533
     53 H15A         7.9460   -11.1670     2.9850 hc         1 FPQ       0.040533
     54 H15B         6.8780   -10.7210     4.3230 hc         1 FPQ       0.040533
@<TRIPOS>BOND
     1     1    12 1
     2     1    22 1
     3     1    24 1
     4     1    26 1
     5     2     3 1
     6     2    14 1
     7     3     4 2
     8     4     5 1
     9     4     6 1
    10     6     7 1
    11     7     8 1
    12     8     9 2
    13     9    10 1
    14     9    16 1
    15    11    12 1
    16    11    13 1
    17    13    14 1
    18    13    15 1
    19    15    23 1
    20    15    25 1
    21    16    17 1
    22    17    18 1
    23    18    19 2
    24    19    20 1
    25    19    21 1
    26     2    27 1
    27     2    28 1
    28     3    29 1
    29     5    30 1
    30     5    31 1
    31     5    32 1
    32     6    33 1
    33     6    34 1
    34     7    35 1
    35     7    36 1
    36     8    37 1
    37    10    38 1
    38    10    39 1
    39    10    40 1
    40    11    41 1
    41    11    42 1
    42    13    43 1
    43    16    44 1
    44    16    45 1
    45    17    46 1
    46    17    47 1
    47    18    48 1
    48    20    49 1
    49    20    50 1
    50    20    51 1
    51    21    52 1
    52    21    53 1
    53    21    54 1
@<TRIPOS>SUBSTRUCTURE
     1 FPQ         1 TEMP              0 ****  ****    0 ROOT
