@<TRIPOS>MOLECULE
FPQ
   54    53     1     0     0
SMALL
bcc


@<TRIPOS>ATOM
      1 P           0.6620    1.2020   -1.4420 p5        1 FPQ      1.324900
      2 C1          5.5050   -1.4670   -0.3200 c3        1 FPQ      0.142600
      3 C2          5.5750   -1.2550   -1.7960 c2        1 FPQ     -0.110200
      4 C3          6.2580   -2.0380   -2.6460 c2        1 FPQ     -0.219400
      5 C4          6.2870   -1.7630   -4.1030 c3        1 FPQ     -0.028900
      6 C5          6.9810   -3.2670   -2.2130 c3        1 FPQ     -0.005200
      7 C6          6.0220   -4.4340   -2.0500 c3        1 FPQ     -0.090200
      8 C7          6.7080   -5.6640   -1.5990 c2        1 FPQ     -0.144200
      9 C8          6.0660   -6.7160   -1.0620 c2        1 FPQ     -0.151400
     10 C9          4.5960   -6.7260   -0.8750 c3        1 FPQ     -0.085900
     11 CX          2.0050   -0.4860    0.1190 c3        1 FPQ      0.236400
     12 OX          2.1150    0.5420   -0.7890 os        1 FPQ     -0.585200
     13 CY          3.1320   -1.5190   -0.1020 c3        1 FPQ      0.018100
     14 OY          4.3670   -0.8490    0.2460 os        1 FPQ     -0.400600
     15 CZ          3.0610   -2.8280    0.7080 c         1 FPQ      0.895600
     16 C10         6.8090   -7.9250   -0.6040 c3        1 FPQ     -0.021200
     17 C11         6.8710   -7.9840    0.9110 c3        1 FPQ     -0.061200
     18 C12         7.5580   -9.1990    1.4050 c2        1 FPQ     -0.141200
     19 C13         7.7860   -9.4460    2.7050 c2        1 FPQ     -0.168400
     20 C14         7.3640   -8.5020    3.7670 c3        1 FPQ     -0.047900
     21 C15         8.4730  -10.6770    3.1620 c3        1 FPQ     -0.047900
     22 O1P         0.1890    2.1590   -0.3740 o         1 FPQ     -0.947167
     23 O1Z         2.4390   -2.9240    1.8030 o         1 FPQ     -0.892800
     24 O2P         1.1660    1.8610   -2.7030 o         1 FPQ     -0.947167
     25 O2Z         3.7040   -3.8360    0.2420 o         1 FPQ     -0.892800
     26 O3P        -0.2290    0.0030   -1.6540 o         1 FPQ     -0.947167
     27 H1          6.3830   -0.9540    0.1650 h1        1 FPQ      0.039200
     28 H1A         5.5180   -2.5630   -0.0620 h1        1 FPQ      0.039200
     29 H2          4.9760   -0.3940   -2.1530 ha        1 FPQ      0.172000
     30 H4          5.9280   -2.6580   -4.6710 hc        1 FPQ      0.016033
     31 H4A         5.6330   -0.8950   -4.3640 hc        1 FPQ      0.016033
     32 H4B         7.3300   -1.5370   -4.4400 hc        1 FPQ      0.016033
     33 H5          7.7760   -3.5310   -2.9620 hc        1 FPQ      0.007200
     34 H5A         7.5000   -3.0790   -1.2350 hc        1 FPQ      0.007200
     35 H6          5.5060   -4.6350   -3.0280 hc        1 FPQ      0.102200
     36 H6A         5.2010   -4.1490   -1.3120 hc        1 FPQ      0.102200
     37 H7          7.8050   -5.6800   -1.7100 ha        1 FPQ      0.081000
     38 H9          4.2540   -7.6620   -0.3710 hc        1 FPQ      0.063700
     39 H9A         4.0820   -6.6460   -1.8650 hc        1 FPQ      0.063700
     40 H9B         4.2660   -5.8340   -0.2610 hc        1 FPQ      0.063700
     41 HX          2.1090   -0.1060    1.1770 h1        1 FPQ      0.010700
     42 HXA         1.0200   -1.0190    0.0040 h1        1 FPQ      0.010700
     43 HY          3.1610   -1.7830   -1.1960 h1        1 FPQ      0.031700
     44 H10         7.8530   -7.9280   -1.0180 hc        1 FPQ      0.016700
     45 H10A        6.2960   -8.8470   -0.9920 hc        1 FPQ      0.016700
     46 H11         5.8250   -7.9440    1.3260 hc        1 FPQ      0.072200
     47 H11A        7.3960   -7.0680    1.2990 hc        1 FPQ      0.072200
     48 H12         7.8830   -9.9190    0.6360 ha        1 FPQ      0.104000
     49 H14         7.9200   -7.5350    3.6680 hc        1 FPQ      0.032533
     50 H14A        7.5570   -8.9190    4.7850 hc        1 FPQ      0.032533
     51 H14B        6.2720   -8.2730    3.6750 hc        1 FPQ      0.032533
     52 H15         9.3910  -10.4130    3.7450 hc        1 FPQ      0.032533
     53 H15A        7.7990  -11.2710    3.8280 hc        1 FPQ      0.032533
     54 H15B        8.7770  -11.3240    2.3030 hc        1 FPQ      0.032533
@<TRIPOS>BOND
     1    1   12 1   
     2    1   22 1   
     3    1   24 1   
     4    1   26 1   
     5    2    3 1   
     6    2   14 1   
     7    2   27 1   
     8    2   28 1   
     9    3    4 2   
    10    3   29 1   
    11    4    5 1   
    12    4    6 1   
    13    5   30 1   
    14    5   31 1   
    15    5   32 1   
    16    6    7 1   
    17    6   33 1   
    18    6   34 1   
    19    7    8 1   
    20    7   35 1   
    21    7   36 1   
    22    8    9 2   
    23    8   37 1   
    24    9   10 1   
    25    9   16 1   
    26   10   38 1   
    27   10   39 1   
    28   10   40 1   
    29   11   12 1   
    30   11   13 1   
    31   11   41 1   
    32   11   42 1   
    33   13   14 1   
    34   13   15 1   
    35   13   43 1   
    36   15   23 1   
    37   15   25 1   
    38   16   17 1   
    39   16   44 1   
    40   16   45 1   
    41   17   18 1   
    42   17   46 1   
    43   17   47 1   
    44   18   19 2   
    45   18   48 1   
    46   19   20 1   
    47   19   21 1   
    48   20   49 1   
    49   20   50 1   
    50   20   51 1   
    51   21   52 1   
    52   21   53 1   
    53   21   54 1   
@<TRIPOS>SUBSTRUCTURE
     1 FPQ         1 TEMP              0 ****  ****    0 ROOT
