@<TRIPOS>MOLECULE
molecule
   49    48     1     0     0
SMALL
bcc


@<TRIPOS>ATOM
      1 C1           0.0000     0.0000     0.0000 c3         1 FPS       0.102900
      2 S1           1.8140     0.0000     0.0000 ss         1 FPS      -0.587500
      3 C2          -0.5020     0.0000     1.4210 c2         1 FPS      -0.394200
      4 C3          -1.1960     1.0160     1.8700 c2         1 FPS      -0.101400
      5 C4          -1.3790     2.2420     1.0120 c3         1 FPS      -0.102900
      6 C5          -1.8130     0.9600     3.2440 c3         1 FPS      -0.011200
      7 C6          -0.8740     1.6260     4.2520 c3         1 FPS      -0.050200
      8 C7          -1.4890     1.5690     5.6260 c2         1 FPS      -0.182200
      9 C8          -0.8620     0.9570     6.6010 c2         1 FPS      -0.148400
     10 C10         -1.4090     1.0170     8.0040 c3         1 FPS       0.004800
     11 C9           0.4070     0.1950     6.3180 c3         1 FPS      -0.055900
     12 C11         -2.2680    -0.2210     8.2680 c3         1 FPS      -0.069200
     13 C12         -2.8150    -0.1620     9.6720 c2         1 FPS      -0.539200
     14 C13         -4.1070    -0.2510     9.8750 c2         1 FPS      -0.065400
     15 C14         -5.0440    -0.4120     8.7070 c3         1 FPS      -0.071900
     16 C15         -4.6540    -0.1910    11.2780 c3         1 FPS      -0.071900
     17 PA           2.2910    -1.9960     0.5350 p5         1 FPS       1.156800
     18 O1A          1.7220    -2.2980     1.8680 o          1 FPS      -0.741500
     19 O2A          1.6720    -3.0060    -0.5540 o          1 FPS      -0.741500
     20 O3A          3.8910    -2.1710     0.5810 os         1 FPS      -0.682800
     21 PB           4.8720    -3.4040     0.9130 p5         1 FPS       1.287900
     22 O1B          4.8880    -3.6660     2.5010 o          1 FPS      -0.879833
     23 O2B          4.3900    -4.6180     0.2170 o          1 FPS      -0.879833
     24 O3B          6.3610    -3.0550     0.4110 o          1 FPS      -0.879833
     25 H11         -0.3610     0.8840    -0.5110 h1         1 FPS       0.063200
     26 H12A        -0.3610    -0.8850    -0.5110 h1         1 FPS       0.063200
     27 H2           0.4130     0.5080     1.1410 ha         1 FPS       0.386000
     28 H41         -1.8930     1.9700     0.0980 hc         1 FPS       0.025367
     29 H42         -1.9650     2.9760     1.5510 hc         1 FPS       0.025367
     30 H43         -0.4100     2.6610     0.7700 hc         1 FPS       0.025367
     31 H51         -1.9710    -0.0740     3.5270 hc         1 FPS       0.038700
     32 H52         -2.7620     1.4810     3.2360 hc         1 FPS       0.038700
     33 H61          0.0760     1.1040     4.2600 hc         1 FPS       0.059200
     34 H62         -0.7150     2.6590     3.9700 hc         1 FPS       0.059200
     35 H7          -2.4010     2.1170     5.8300 ha         1 FPS       0.095000
     36 H101        -2.0150     1.9080     8.1170 hc         1 FPS       0.044200
     37 H102        -0.5890     1.0450     8.7100 hc         1 FPS       0.044200
     38 H91          0.2030    -0.5970     5.6080 hc         1 FPS       0.055367
     39 H92          0.7840    -0.2330     7.2390 hc         1 FPS       0.055367
     40 H93          1.1480     0.8690     5.9040 hc         1 FPS       0.055367
     41 H111        -1.6620    -1.1120     8.1540 hc         1 FPS       0.035200
     42 H112        -3.0880    -0.2490     7.5610 hc         1 FPS       0.035200
     43 H12         -2.6930    -1.0740     9.1010 ha         1 FPS       0.311000
     44 H141        -6.0600    -0.5140     9.0700 hc         1 FPS       0.031367
     45 H142        -4.9760     0.4580     8.0660 hc         1 FPS       0.031367
     46 H143        -4.7710    -1.2970     8.1450 hc         1 FPS       0.031367
     47 H151        -3.8360    -0.2290    11.9870 hc         1 FPS       0.031367
     48 H152        -5.2050     0.7320    11.4120 hc         1 FPS       0.031367
     49 H153        -5.3150    -1.0330    11.4440 hc         1 FPS       0.031367
@<TRIPOS>BOND
     1     1     2 1
     2     1     3 1
     3     1    25 1
     4     1    26 1
     5     2    17 1
     6     3     4 2
     7     3    27 1
     8     4     5 1
     9     4     6 1
    10     5    28 1
    11     5    29 1
    12     5    30 1
    13     6     7 1
    14     6    31 1
    15     6    32 1
    16     7     8 1
    17     7    33 1
    18     7    34 1
    19     8     9 2
    20     8    35 1
    21     9    10 1
    22     9    11 1
    23    10    12 1
    24    10    36 1
    25    10    37 1
    26    11    38 1
    27    11    39 1
    28    11    40 1
    29    12    13 1
    30    12    41 1
    31    12    42 1
    32    13    14 2
    33    13    43 1
    34    14    15 1
    35    14    16 1
    36    15    44 1
    37    15    45 1
    38    15    46 1
    39    16    47 1
    40    16    48 1
    41    16    49 1
    42    17    18 1
    43    17    19 1
    44    17    20 1
    45    20    21 1
    46    21    22 1
    47    21    23 1
    48    21    24 1
@<TRIPOS>SUBSTRUCTURE
     1 FPS         1 TEMP              0 ****  ****    0 ROOT
