@<TRIPOS>MOLECULE
FPS
   49    47     1     0     0
SMALL
bcc


@<TRIPOS>ATOM
      1 C1         -0.0560    0.0230   -0.3210 c3        1 FPS     -0.086000
      2 S1          1.6520    0.2640   -0.7340 s         1 FPS     -0.861000
      3 C2         -0.2840    0.1880    1.1260 c2        1 FPS     -0.071000
      4 C3         -1.1310    1.0800    1.6770 c2        1 FPS     -0.251000
      5 C4         -1.9180    2.0450    0.8720 c3        1 FPS     -0.136000
      6 C5         -1.3450    1.1210    3.1510 c3        1 FPS     -0.063000
      7 C6         -0.0490    1.1360    3.9430 c3        1 FPS     -0.188000
      8 C7         -0.3160    1.2020    5.3980 c2        1 FPS     -0.121000
      9 C8         -0.5730    0.1420    6.1830 c2        1 FPS     -0.141000
     10 C10        -0.7870    0.3140    7.6510 c3        1 FPS     -0.110000
     11 C9         -0.6250   -1.2470    5.6720 c3        1 FPS     -0.221000
     12 C11        -2.1970   -0.0790    8.0560 c3        1 FPS     -0.144000
     13 C12        -2.4170    0.0200    9.5160 c2        1 FPS     -0.116000
     14 C13        -3.6250   -0.0590   10.1010 c2        1 FPS     -0.181000
     15 C14        -4.8680   -0.2470    9.3160 c3        1 FPS     -0.163500
     16 C15        -3.7930    0.0380   11.5700 c3        1 FPS     -0.163500
     17 PA          3.0360   -1.6830   -0.3590 p3        1 FPS      2.686000
     18 O1A         2.3880   -2.6540   -1.2650 o         1 FPS     -1.179500
     19 O2A         4.3380   -1.1110   -0.7580 o         1 FPS     -1.179500
     20 O3A         2.8620   -1.9940    1.1410 os        1 FPS     -1.254000
     21 PB          2.6530   -2.4280    2.8700 p5        1 FPS      1.699500
     22 O1B         1.3950   -1.6580    3.2120 o         1 FPS     -0.945833
     23 O2B         2.4900   -3.9160    2.8430 o         1 FPS     -0.945833
     24 O3B         3.8960   -1.9310    3.5380 o         1 FPS     -0.945833
     25 H11        -0.3640   -1.0110   -0.6220 h1        1 FPS      0.060000
     26 H12A       -0.6470    0.7490   -0.9330 h1        1 FPS      0.060000
     27 H2          0.3100   -0.5060    1.7790 ha        1 FPS      0.242000
     28 H41        -2.4510    2.7900    1.5140 hc        1 FPS      0.039333
     29 H42        -1.2510    2.6090    0.1720 hc        1 FPS      0.039333
     30 H43        -2.6890    1.5150    0.2560 hc        1 FPS      0.039333
     31 H51        -1.9380    0.2150    3.4590 hc        1 FPS      0.035000
     32 H52        -1.9600    2.0200    3.4330 hc        1 FPS      0.035000
     33 H61         0.5630    0.2030    3.6870 hc        1 FPS      0.155000
     34 H62         0.5660    2.0210    3.6330 hc        1 FPS      0.155000
     35 H7         -0.2800    2.2120    5.8420 ha        1 FPS      0.061000
     36 H101       -0.5990    1.3770    7.9610 hc        1 FPS      0.064000
     37 H102       -0.0490   -0.3280    8.2030 hc        1 FPS      0.064000
     38 H91        -1.6370   -1.4600    5.2460 hc        1 FPS      0.107333
     39 H92        -0.4260   -1.9830    6.4890 hc        1 FPS      0.107333
     40 H93         0.1380   -1.4110    4.8410 hc        1 FPS      0.107333
     41 H111       -2.9370    0.5690    7.5130 hc        1 FPS      0.098000
     42 H112       -2.3890   -1.1370    7.7210 hc        1 FPS      0.098000
     43 H12        -1.5110    0.1600   10.1290 ha        1 FPS      0.114000
     44 H141       -4.7390   -1.0720    8.5700 hc        1 FPS      0.066667
     45 H142       -5.7330   -0.4970    9.9780 hc        1 FPS      0.066667
     46 H143       -5.1130    0.6880    8.7510 hc        1 FPS      0.066667
     47 H151       -2.8190    0.2220   12.0850 hc        1 FPS      0.066667
     48 H152       -4.4910    0.8750   11.8260 hc        1 FPS      0.066667
     49 H153       -4.2290   -0.9110   11.9730 hc        1 FPS      0.066667
@<TRIPOS>BOND
     1    1    2 1   
     2    1    3 1   
     3    1   25 1   
     4    1   26 1   
     5    3    4 1   
     6    3   27 1   
     7    4    5 1   
     8    4    6 1   
     9    5   28 1   
    10    5   29 1   
    11    5   30 1   
    12    6    7 1   
    13    6   31 1   
    14    6   32 1   
    15    7    8 1   
    16    7   33 1   
    17    7   34 1   
    18    8    9 1   
    19    8   35 1   
    20    9   10 1   
    21    9   11 1   
    22   10   12 1   
    23   10   36 1   
    24   10   37 1   
    25   11   38 1   
    26   11   39 1   
    27   11   40 1   
    28   12   13 1   
    29   12   41 1   
    30   12   42 1   
    31   13   14 1   
    32   13   43 1   
    33   14   15 1   
    34   14   16 1   
    35   15   44 1   
    36   15   45 1   
    37   15   46 1   
    38   16   47 1   
    39   16   48 1   
    40   16   49 1   
    41   17   18 1   
    42   17   19 1   
    43   17   20 1   
    44   20   21 1   
    45   21   22 1   
    46   21   23 1   
    47   21   24 1   
@<TRIPOS>SUBSTRUCTURE
     1 FPS         1 TEMP              0 ****  ****    0 ROOT
