@<TRIPOS>MOLECULE
FPT
   40    42     1     0     0
SMALL
bcc


@<TRIPOS>ATOM
      1 C1           0.0000     0.0000     0.0000 c2         1 FPT      -0.080000
      2 N2           1.3240     0.0000     0.0000 n2         1 FPT       0.010000
      3 C3           2.0160     0.0000     1.1210 c2         1 FPT       0.002000
      4 C4           1.3630    -0.0110     2.3550 c2         1 FPT      -0.050000
      5 C5          -0.0390    -0.0170     2.3840 c2         1 FPT      -0.018000
      6 C6          -0.7160    -0.0110     1.1940 c2         1 FPT      -0.187000
      7 C7           2.1150    -0.0170     3.5740 c1         1 FPT      -0.095000
      8 N7           2.6950    -0.0150     4.5500 n1         1 FPT      -0.049000
      9 N8          -0.6840     0.0060    -1.2090 ns         1 FPT       0.297000
     10 C9          -0.0050    -0.0900    -2.3690 c2         1 FPT      -0.161000
     11 S9           1.7050    -0.0800    -2.3620 s          1 FPT      -0.303000
     12 N10         -0.6730    -0.1950    -3.5350 ns         1 FPT       0.045000
     13 C11          0.0650    -0.2990    -4.7950 c3         1 FPT      -0.066000
     14 C12         -0.9230    -0.4050    -5.9580 c3         1 FPT      -0.412000
     15 C13         -0.1640    -0.5130    -7.2550 c3         1 FPT       0.096000
     16 N14          0.1720    -1.7030    -7.7170 n2         1 FPT      -0.125000
     17 C15          0.8370    -1.8480    -8.8470 c2         1 FPT      -0.009000
     18 C16          1.2110    -0.7510    -9.5960 c2         1 FPT      -0.255000
     19 C17          0.8770     0.5210    -9.1440 c2         1 FPT       0.103000
     20 C18          0.1800     0.6350    -7.9430 c2         1 FPT       0.028000
     21 O17          1.2270     1.6250    -9.8530 os         1 FPT      -0.132000
     22 CA           1.9260     1.1680   -11.0120 c3         1 FPT      -0.014000
     23 CB           2.3510     2.3690   -11.8580 c3         1 FPT      -0.107000
     24 F18         -0.1660     1.8490    -7.4640 f          1 FPT      -0.061000
     25 H3           3.0980     0.0000     1.0890 h4         1 FPT       0.133000
     26 H5          -0.5610    -0.0260     3.3330 ha         1 FPT       0.118000
     27 H6          -1.7990    -0.0110     1.1770 ha         1 FPT       0.118000
     28 HN8         -1.6850     0.0400    -1.2180 hn         1 FPT       0.072000
     29 H10         -1.0220    -1.0850    -3.8330 hn         1 FPT       0.090000
     30 H111         0.6620    -1.2030    -4.7900 h1         1 FPT       0.073500
     31 H112         0.7130     0.5620    -4.9060 h1         1 FPT       0.073500
     32 H121        -1.8670    -0.7940    -5.5960 hc         1 FPT       0.160000
     33 H122        -0.5240    -1.0740    -6.7120 DU         1 FPT       0.151000
     34 H15          1.0970    -2.8390    -9.1990 h4         1 FPT       0.123000
     35 H16          1.7570    -0.8870   -10.5210 ha         1 FPT       0.152000
     36 HA1          2.5340     0.3100   -10.7520 h1         1 FPT       0.062000
     37 HA2          1.2120     0.8870   -11.7770 h1         1 FPT       0.062000
     38 HB1          2.9560     2.0290   -12.6900 hc         1 FPT       0.052000
     39 HB2          1.4710     2.8750   -12.2360 hc         1 FPT       0.052000
     40 HB3          2.9280     3.0540   -11.2490 hc         1 FPT       0.052000
@<TRIPOS>BOND
     1     1     2 1   
     2     1     6 1   
     3     1     9 1   
     4     2     3 1   
     5     3     4 1   
     6     3    25 1   
     7     4     5 1   
     8     4     7 1   
     9     5     6 1   
    10     5    26 1   
    11     6    27 1   
    12     7     8 1   
    13     9    10 1   
    14     9    28 1   
    15    10    11 1   
    16    10    12 1   
    17    12    13 1   
    18    12    29 1   
    19    13    14 1   
    20    13    30 1   
    21    13    31 1   
    22    14    15 1   
    23    14    32 1   
    24    14    33 1   
    25    15    16 1   
    26    15    20 1   
    27    15    33 1   
    28    16    17 1   
    29    17    18 1   
    30    17    34 1   
    31    18    19 1   
    32    18    35 1   
    33    19    20 1   
    34    19    21 1   
    35    20    24 1   
    36    21    22 1   
    37    22    23 1   
    38    22    36 1   
    39    22    37 1   
    40    23    38 1   
    41    23    39 1   
    42    23    40 1   
@<TRIPOS>SUBSTRUCTURE
     1 FPT         1 TEMP              0 ****  ****    0 ROOT
