@<TRIPOS>MOLECULE
FPU
   58    62     1     0     0
SMALL
bcc


@<TRIPOS>ATOM
      1 C1           0.0000     0.0000     0.0000 c3         1 FPU       0.240700
      2 N1           3.9590     0.0000     4.8620 nb         1 FPU      -0.608000
      3 O1           1.4290     0.0000     0.0000 os         1 FPU      -0.293900
      4 C2           2.0470     0.0000     1.2110 ca         1 FPU       0.129100
      5 N2          -2.1920    -0.8050     7.6350 nb         1 FPU      -0.532000
      6 C3           1.2970     0.0010     2.3520 ca         1 FPU      -0.170000
      7 N3          -2.8430     0.3920     9.5500 ns         1 FPU      -0.131400
      8 C4           1.9340     0.0010     3.6020 ca         1 FPU      -0.161300
      9 N4          -4.3760    -0.5140    11.0600 ns         1 FPU      -0.164900
     10 O4          -3.6610    -1.6580     9.2950 o          1 FPU      -0.629100
     11 C5           1.1910     0.0010     4.8040 ca         1 FPU       0.184100
     12 C6           1.8890     0.0010     5.9980 ca         1 FPU      -0.345300
     13 C7           3.2780     0.0000     5.9840 ca         1 FPU       0.449200
     14 C8           3.3480     0.0000     3.6710 ca         1 FPU       0.417600
     15 C9           4.0930    -0.0000     2.4790 ca         1 FPU      -0.258300
     16 C10          3.4480    -0.0010     1.2770 ca         1 FPU       0.155100
     17 C11          5.5950    -0.0010     0.2570 c3         1 FPU       0.239700
     18 C12         -0.8180     0.1320     5.9720 ca         1 FPU      -0.059200
     19 C13         -0.7550     1.3270     6.6840 ca         1 FPU      -0.068000
     20 C14         -1.4350     1.4140     7.8860 ca         1 FPU      -0.261300
     21 C15         -2.1540     0.3140     8.3380 ca         1 FPU       0.375200
     22 C16         -1.5550    -0.9230     6.4860 ca         1 FPU       0.428200
     23 C17         -3.6280    -0.6310     9.9450 c          1 FPU       0.550100
     24 C18         -5.2280    -1.6250    11.4900 cx         1 FPU      -0.019300
     25 C19         -6.6450    -1.2880    11.9610 cx         1 FPU      -0.104400
     26 C20         -5.5810    -1.7110    12.9760 cx         1 FPU      -0.063400
     27 C21         -5.7070    -3.0840    13.5840 ca         1 FPU      -0.049300
     28 C22         -4.8860    -3.4540    14.6320 ca         1 FPU      -0.101500
     29 C23         -5.0000    -4.7140    15.1900 ca         1 FPU      -0.094000
     30 C24         -5.9370    -5.6040    14.6980 ca         1 FPU      -0.103000
     31 C25         -6.7580    -5.2340    13.6500 ca         1 FPU      -0.094000
     32 C26         -6.6460    -3.9730    13.0960 ca         1 FPU      -0.101500
     33 H18         -5.1330    -2.5810    10.9900 h1         1 FPU       0.106700
     34 H20         -5.1880    -0.9050    13.5830 hc         1 FPU       0.057700
     35 H1          -0.3610    -0.0270    -1.0210 h1         1 FPU      -0.000967
     36 H1A         -0.3610     0.8970     0.4870 h1         1 FPU      -0.000967
     37 H1B         -0.3610    -0.8710     0.5330 h1         1 FPU      -0.000967
     38 H3           0.2210     0.1050     2.2920 ha         1 FPU       0.138000
     39 H6           1.3550     0.0010     6.9410 ha         1 FPU       0.132000
     40 H7           3.8140    -0.0000     6.9260 h4         1 FPU      -0.024900
     41 H9           5.1760    -0.0010     2.5150 ha         1 FPU       0.141000
     42 H11          6.0480    -0.0020    -0.7270 h1         1 FPU       0.000033
     43 H11A         5.9090     0.8830     0.7980 h1         1 FPU       0.000033
     44 H11B         5.9080    -0.8860     0.7980 h1         1 FPU       0.000033
     45 H13         -0.1860     2.1680     6.3060 ha         1 FPU       0.123000
     46 H14         -1.4070     2.3280     8.4660 ha         1 FPU       0.117000
     47 H16         -1.6090    -1.8560     5.9370 h4         1 FPU      -0.005900
     48 HN3         -2.7220     1.1880    10.1440 hn         1 FPU       0.163500
     49 HN4         -4.3700     0.3430    11.5790 hn         1 FPU       0.160500
     50 H19         -6.8990    -0.2340    11.9620 hc         1 FPU       0.054700
     51 H19A        -7.4010    -2.0310    11.7380 hc         1 FPU       0.054700
     52 H22         -4.1520    -2.7570    15.0180 ha         1 FPU       0.108500
     53 H23         -4.3560    -5.0030    16.0110 ha         1 FPU       0.102500
     54 H24         -6.0260    -6.5920    15.1330 ha         1 FPU       0.102000
     55 H25         -7.4930    -5.9310    13.2650 ha         1 FPU       0.102500
     56 H26         -7.2900    -3.6830    12.2750 ha         1 FPU       0.108500
     57 O2           4.1730    -0.0010     0.1270 os         1 FPU      -0.293900
     58 O3          -0.1650     0.0030     4.7860 os         1 FPU      -0.200200
@<TRIPOS>BOND
     1     1     3 1   
     2     1    35 1   
     3     1    36 1   
     4     1    37 1   
     5     2    13 ar  
     6     2    14 ar  
     7     3     4 1   
     8     4     6 ar  
     9     4    16 ar  
    10     5    21 ar  
    11     5    22 ar  
    12     6     8 ar  
    13     6    38 1   
    14     7    21 1   
    15     7    23 1   
    16     7    48 1   
    17     8    11 ar  
    18     8    14 ar  
    19     9    23 1   
    20     9    24 1   
    21     9    49 1   
    22    10    23 2   
    23    11    12 ar  
    24    11    58 1   
    25    12    13 ar  
    26    12    39 1   
    27    13    40 1   
    28    14    15 ar  
    29    15    16 ar  
    30    15    41 1   
    31    16    57 1   
    32    17    42 1   
    33    17    43 1   
    34    17    44 1   
    35    17    57 1   
    36    18    19 ar  
    37    18    22 ar  
    38    18    58 1   
    39    19    20 ar  
    40    19    45 1   
    41    20    21 ar  
    42    20    46 1   
    43    22    47 1   
    44    24    25 1   
    45    24    26 1   
    46    24    33 1   
    47    25    26 1   
    48    25    50 1   
    49    25    51 1   
    50    26    27 1   
    51    26    34 1   
    52    27    28 ar  
    53    27    32 ar  
    54    28    29 ar  
    55    28    52 1   
    56    29    30 ar  
    57    29    53 1   
    58    30    31 ar  
    59    30    54 1   
    60    31    32 ar  
    61    31    55 1   
    62    32    56 1   
@<TRIPOS>SUBSTRUCTURE
     1 FPU         1 TEMP              0 ****  ****    0 ROOT
