@<TRIPOS>MOLECULE
molecule
   62    66     1     0     0
SMALL
bcc


@<TRIPOS>ATOM
      1 C1           0.0000     0.0000     0.0000 ca         1 FPW      -0.066200
      2 C2           1.3860     0.0000     0.0000 ca         1 FPW       0.432200
      3 N3           2.0610     0.0000     1.1330 nb         1 FPW      -0.720000
      4 C4           1.4490     0.0020     2.3070 ca         1 FPW       0.549200
      5 C5           0.0610     0.0020     2.3840 ca         1 FPW      -0.259300
      6 C6          -0.6790     0.0010     1.2160 ca         1 FPW      -0.083000
      7 C7          -1.2850    -1.1680    -3.1930 ca         1 FPW      -0.164300
      8 C8          -1.2800    -2.3830    -3.9190 ca         1 FPW       0.456600
      9 N9          -0.7290    -3.4780    -3.3820 nb         1 FPW      -0.713000
     10 C10         -0.1890    -3.4610    -2.1860 ca         1 FPW       0.463200
     11 C11         -0.1560    -2.3080    -1.4130 ca         1 FPW      -0.353300
     12 C12         -0.7050    -1.1370    -1.9050 ca         1 FPW       0.178100
     13 C13         -2.4240    -0.0880    -5.0000 ca         1 FPW       0.120100
     14 C14         -2.4100    -1.2870    -5.7270 ca         1 FPW       0.153100
     15 C15         -1.8550    -2.4180    -5.2010 ca         1 FPW      -0.265300
     16 C16         -1.8680    -0.0210    -3.7560 ca         1 FPW      -0.175000
     17 O17         -0.6880     0.0040    -1.1720 os         1 FPW      -0.235200
     18 O18         -2.9840     1.0240    -5.5480 os         1 FPW      -0.314900
     19 O19         -2.9700    -1.3290    -6.9630 os         1 FPW      -0.311900
     20 C20         -2.9670     2.2150    -4.7580 c3         1 FPW       0.125700
     21 C21         -2.9240    -2.5790    -7.6540 c3         1 FPW       0.124700
     22 N22          2.2050     0.0030     3.4790 ns         1 FPW      -0.537400
     23 N23          4.5640    -0.1430     6.9700 n          1 FPW      -0.296000
     24 C24          3.8190    -0.0390     5.8540 c          1 FPW       0.704700
     25 C25          5.9290     0.3870     6.9770 c3         1 FPW       0.133300
     26 C26          4.0700    -0.7250     8.0880 cc         1 FPW       0.040600
     27 C27          2.4950    -0.5510     5.8390 cc         1 FPW      -0.308400
     28 C29          5.9070     1.8260     7.4250 ca         1 FPW      -0.130300
     29 C30          2.8070    -1.2240     8.1240 cd         1 FPW      -0.262000
     30 C31          1.9950    -1.1540     6.9920 cd         1 FPW       0.044000
     31 C32          1.6660    -0.4460     4.6300 c          1 FPW       0.707300
     32 C33          6.0280     2.1360     8.7660 ca         1 FPW      -0.105500
     33 C34          5.7720     2.8380     6.4920 ca         1 FPW      -0.105500
     34 O35          0.4920    -0.7640     4.6680 o          1 FPW      -0.620100
     35 C36          6.0070     3.4560     9.1760 ca         1 FPW      -0.129000
     36 C37          5.7510     4.1580     6.9020 ca         1 FPW      -0.129000
     37 C38          5.8660     4.4660     8.2450 ca         1 FPW      -0.113000
     38 H2           1.9210    -0.0010    -0.9420 h4         1 FPW       0.036100
     39 H5          -0.4350     0.0030     3.3470 ha         1 FPW       0.199000
     40 H6          -1.7620     0.0010     1.2470 ha         1 FPW       0.153000
     41 H10          0.2440    -4.3720    -1.7910 h4         1 FPW       0.022100
     42 H11          0.2970    -2.3250    -0.4300 ha         1 FPW       0.151000
     43 H15         -1.8510    -3.3380    -5.7730 ha         1 FPW       0.161000
     44 H16         -1.8830     0.9100    -3.2020 ha         1 FPW       0.157000
     45 H20         -3.4470     3.0180    -5.3050 h1         1 FPW       0.043033
     46 H20A        -3.5000     2.0410    -3.8310 h1         1 FPW       0.043033
     47 H20B        -1.9420     2.4890    -4.5390 h1         1 FPW       0.043033
     48 H21         -3.3950    -2.4740    -8.6240 h1         1 FPW       0.044367
     49 H21A        -3.4490    -3.3300    -7.0770 h1         1 FPW       0.044367
     50 H21B        -1.8920    -2.8810    -7.7860 h1         1 FPW       0.044367
     51 HN22         3.1510     0.3290     3.4630 hn         1 FPW       0.378500
     52 H25          6.3450     0.3260     5.9790 h1         1 FPW       0.079700
     53 H25A         6.5390    -0.1940     7.6590 h1         1 FPW       0.079700
     54 H26          4.6920    -0.7910     8.9730 h4         1 FPW       0.160000
     55 H30          2.4340    -1.6870     9.0290 ha         1 FPW       0.157000
     56 H31          0.9880    -1.5520     7.0120 ha         1 FPW       0.167000
     57 H33          6.1380     1.3430     9.4960 ha         1 FPW       0.138500
     58 H34          5.6820     2.5970     5.4400 ha         1 FPW       0.138500
     59 H36          6.0990     3.6970    10.2280 ha         1 FPW       0.135500
     60 H37          5.6430     4.9510     6.1710 ha         1 FPW       0.135500
     61 H38          5.8500     5.5010     8.5670 ha         1 FPW       0.134000
     62 O28          4.2790     0.4930     4.8580 o          1 FPW      -0.676500
@<TRIPOS>BOND
     1     1     2 ar
     2     1     6 ar
     3     1    17 1
     4     2     3 ar
     5     3     4 ar
     6     4     5 ar
     7     4    22 1
     8     5     6 ar
     9     7     8 ar
    10     7    12 ar
    11     7    16 ar
    12     8     9 ar
    13     8    15 ar
    14     9    10 ar
    15    10    11 ar
    16    11    12 ar
    17    12    17 1
    18    13    14 ar
    19    13    16 ar
    20    13    18 1
    21    14    15 ar
    22    14    19 1
    23    18    20 1
    24    19    21 1
    25    22    31 1
    26    23    24 1
    27    23    25 1
    28    23    26 1
    29    24    27 1
    30    24    62 2
    31    25    28 1
    32    26    29 2
    33    27    30 2
    34    27    31 1
    35    28    32 ar
    36    28    33 ar
    37    29    30 1
    38    31    34 2
    39    32    35 ar
    40    33    36 ar
    41    35    37 ar
    42    36    37 ar
    43     2    38 1
    44     5    39 1
    45     6    40 1
    46    10    41 1
    47    11    42 1
    48    15    43 1
    49    16    44 1
    50    20    45 1
    51    20    46 1
    52    20    47 1
    53    21    48 1
    54    21    49 1
    55    21    50 1
    56    22    51 1
    57    25    52 1
    58    25    53 1
    59    26    54 1
    60    29    55 1
    61    30    56 1
    62    32    57 1
    63    33    58 1
    64    35    59 1
    65    36    60 1
    66    37    61 1
@<TRIPOS>SUBSTRUCTURE
     1 FPW         1 TEMP              0 ****  ****    0 ROOT
