@<TRIPOS>MOLECULE
FPW
   62    66     1     0     0
SMALL
bcc


@<TRIPOS>ATOM
      1 C1           0.0000     0.0000     0.0000 ca         1 FPW      -0.056200
      2 C2           1.3860     0.0000     0.0000 ca         1 FPW       0.401200
      3 N3           2.0610     0.0000     1.1330 nb         1 FPW      -0.600000
      4 C4           1.4490     0.0020     2.3070 ca         1 FPW       0.359200
      5 C5           0.0610     0.0020     2.3840 ca         1 FPW      -0.247300
      6 C6          -0.6790     0.0010     1.2160 ca         1 FPW      -0.057000
      7 C7          -1.2850    -1.1680    -3.1930 ca         1 FPW      -0.163300
      8 C8          -1.2800    -2.3830    -3.9190 ca         1 FPW       0.418600
      9 N9          -0.7290    -3.4780    -3.3820 nb         1 FPW      -0.611000
     10 C10         -0.1890    -3.4610    -2.1860 ca         1 FPW       0.451200
     11 C11         -0.1560    -2.3080    -1.4130 ca         1 FPW      -0.341300
     12 C12         -0.7050    -1.1370    -1.9050 ca         1 FPW       0.185100
     13 C13         -2.4240    -0.0880    -5.0000 ca         1 FPW       0.125100
     14 C14         -2.4100    -1.2870    -5.7270 ca         1 FPW       0.155100
     15 C15         -1.8550    -2.4180    -5.2010 ca         1 FPW      -0.259300
     16 C16         -1.8680    -0.0210    -3.7560 ca         1 FPW      -0.168000
     17 O17         -0.6880     0.0040    -1.1720 os         1 FPW      -0.203200
     18 O18         -2.9840     1.0240    -5.5480 os         1 FPW      -0.294900
     19 O19         -2.9700    -1.3290    -6.9630 os         1 FPW      -0.293900
     20 C20         -2.9670     2.2150    -4.7580 c3         1 FPW       0.239700
     21 C21         -2.9240    -2.5790    -7.6540 c3         1 FPW       0.239700
     22 N22          2.2050     0.0030     3.4790 ns         1 FPW      -0.121400
     23 N23          4.5640    -0.1430     6.9700 n          1 FPW       0.154000
     24 C24          3.8190    -0.0390     5.8540 c          1 FPW       0.610700
     25 C25          5.9290     0.3870     6.9770 c3         1 FPW       0.064300
     26 C26          4.0700    -0.7250     8.0880 cc         1 FPW      -0.110400
     27 C27          2.4950    -0.5510     5.8390 cc         1 FPW      -0.326400
     28 C29          5.9070     1.8260     7.4250 ca         1 FPW      -0.142300
     29 C30          2.8070    -1.2240     8.1240 cd         1 FPW      -0.224000
     30 C31          1.9950    -1.1540     6.9920 cd         1 FPW       0.077000
     31 C32          1.6660    -0.4460     4.6300 c          1 FPW       0.621300
     32 C33          6.0280     2.1360     8.7660 ca         1 FPW      -0.079000
     33 C34          5.7720     2.8380     6.4920 ca         1 FPW      -0.079000
     34 O35          0.4920    -0.7640     4.6680 o          1 FPW      -0.667100
     35 C36          6.0070     3.4560     9.1760 ca         1 FPW      -0.100500
     36 C37          5.7510     4.1580     6.9020 ca         1 FPW      -0.100500
     37 C38          5.8660     4.4660     8.2450 ca         1 FPW      -0.085000
     38 H2           1.9210    -0.0010    -0.9420 h4         1 FPW      -0.008900
     39 H5          -0.4350     0.0030     3.3470 ha         1 FPW       0.186000
     40 H6          -1.7620     0.0010     1.2470 ha         1 FPW       0.120000
     41 H10          0.2440    -4.3720    -1.7910 h4         1 FPW      -0.024900
     42 H11          0.2970    -2.3250    -0.4300 ha         1 FPW       0.134000
     43 H15         -1.8510    -3.3380    -5.7730 ha         1 FPW       0.140000
     44 H16         -1.8830     0.9100    -3.2020 ha         1 FPW       0.138000
     45 H20         -3.4470     3.0180    -5.3050 h1         1 FPW      -0.001300
     46 H20A        -3.5000     2.0410    -3.8310 h1         1 FPW      -0.001300
     47 H20B        -1.9420     2.4890    -4.5390 h1         1 FPW      -0.001300
     48 H21         -3.3950    -2.4740    -8.6240 h1         1 FPW      -0.000300
     49 H21A        -3.4490    -3.3300    -7.0770 h1         1 FPW      -0.000300
     50 H21B        -1.8920    -2.8810    -7.7860 h1         1 FPW      -0.000300
     51 HN22         3.1510     0.3290     3.4630 hn         1 FPW       0.239500
     52 H25          6.3450     0.3260     5.9790 h1         1 FPW       0.050200
     53 H25A         6.5390    -0.1940     7.6590 h1         1 FPW       0.050200
     54 H26          4.6920    -0.7910     8.9730 h4         1 FPW       0.130000
     55 H30          2.4340    -1.6870     9.0290 ha         1 FPW       0.129000
     56 H31          0.9880    -1.5520     7.0120 ha         1 FPW       0.130000
     57 H33          6.1380     1.3430     9.4960 ha         1 FPW       0.114500
     58 H34          5.6820     2.5970     5.4400 ha         1 FPW       0.114500
     59 H36          6.0990     3.6970    10.2280 ha         1 FPW       0.107500
     60 H37          5.6430     4.9510     6.1710 ha         1 FPW       0.107500
     61 H38          5.8500     5.5010     8.5670 ha         1 FPW       0.105000
     62 O28          4.2790     0.4930     4.8580 o          1 FPW      -0.727500
@<TRIPOS>BOND
     1     1     2 ar  
     2     1     6 ar  
     3     1    17 1   
     4     2     3 ar  
     5     2    38 1   
     6     3     4 ar  
     7     4     5 ar  
     8     4    22 1   
     9     5     6 ar  
    10     5    39 1   
    11     6    40 1   
    12     7     8 ar  
    13     7    12 ar  
    14     7    16 ar  
    15     8     9 ar  
    16     8    15 ar  
    17     9    10 ar  
    18    10    11 ar  
    19    10    41 1   
    20    11    12 ar  
    21    11    42 1   
    22    12    17 1   
    23    13    14 ar  
    24    13    16 ar  
    25    13    18 1   
    26    14    15 ar  
    27    14    19 1   
    28    15    43 1   
    29    16    44 1   
    30    18    20 1   
    31    19    21 1   
    32    20    45 1   
    33    20    46 1   
    34    20    47 1   
    35    21    48 1   
    36    21    49 1   
    37    21    50 1   
    38    22    31 1   
    39    22    51 1   
    40    23    24 1   
    41    23    25 1   
    42    23    26 1   
    43    24    27 1   
    44    24    62 2   
    45    25    28 1   
    46    25    52 1   
    47    25    53 1   
    48    26    29 2   
    49    26    54 1   
    50    27    30 2   
    51    27    31 1   
    52    28    32 ar  
    53    28    33 ar  
    54    29    30 1   
    55    29    55 1   
    56    30    56 1   
    57    31    34 2   
    58    32    35 ar  
    59    32    57 1   
    60    33    36 ar  
    61    33    58 1   
    62    35    37 ar  
    63    35    59 1   
    64    36    37 ar  
    65    36    60 1   
    66    37    61 1   
@<TRIPOS>SUBSTRUCTURE
     1 FPW         1 TEMP              0 ****  ****    0 ROOT
