@<TRIPOS>MOLECULE
FPX
   61    65     1     0     0
SMALL
bcc


@<TRIPOS>ATOM
      1 C1           0.0000     0.0000     0.0000 c3         1 FPX       0.060200
      2 C2           1.5060     0.0000     0.0000 ca         1 FPX      -0.081300
      3 C3           2.1970     0.0000     1.1950 ca         1 FPX      -0.088000
      4 C4           3.5790    -0.0010     1.2000 ca         1 FPX      -0.123000
      5 C5           4.2830    -0.0010     0.0020 ca         1 FPX      -0.105400
      6 N6           5.6810    -0.0020     0.0110 ns         1 FPX      -0.025100
      7 C7           6.3610    -0.6780    -0.9370 c          1 FPX       0.583700
      8 O8           5.7610    -1.2260    -1.8420 o          1 FPX      -0.636100
      9 C9           7.8360    -0.7530    -0.8760 ca         1 FPX      -0.165600
     10 C10          8.5280    -0.1260     0.1610 ca         1 FPX      -0.052000
     11 C11          9.9050    -0.2000     0.2120 ca         1 FPX      -0.113000
     12 C12         10.5990    -0.8940    -0.7620 ca         1 FPX      -0.024000
     13 C13          9.9200    -1.5170    -1.7940 ca         1 FPX      -0.222300
     14 C14          8.5430    -1.4570    -1.8530 ca         1 FPX       0.027000
     15 C15         10.6850    -2.2720    -2.8510 c3         1 FPX       0.642200
     16 F16         12.0550    -2.1990    -2.5770 f          1 FPX      -0.206300
     17 F17         10.2810    -3.6110    -2.8530 f          1 FPX      -0.206300
     18 F18         10.4290    -1.7060    -4.1040 f          1 FPX      -0.206300
     19 C19          3.5970    -0.0030    -1.2040 ca         1 FPX      -0.070000
     20 C20          2.2040    -0.0070    -1.2090 ca         1 FPX      -0.005800
     21 C21          1.4640    -0.0140    -2.4930 cc         1 FPX      -0.149400
     22 C22          0.8540    -1.1570    -2.9320 cd         1 FPX       0.019800
     23 C23          0.1560    -1.1320    -4.1610 ca         1 FPX      -0.428400
     24 C24         -0.4860    -2.2770    -4.6560 ca         1 FPX       0.548200
     25 N25         -1.1240    -2.1950    -5.8090 nb         1 FPX      -0.711000
     26 C26         -1.1620    -1.0580    -6.4950 ca         1 FPX       0.740900
     27 N27         -1.8440    -1.0280    -7.6960 nu         1 FPX      -0.266300
     28 C28         -2.5420    -2.1580    -8.1320 ca         1 FPX      -0.016400
     29 C29         -3.7390    -2.0130    -8.8220 ca         1 FPX      -0.116000
     30 C30         -4.4260    -3.1320    -9.2520 ca         1 FPX      -0.084500
     31 C31         -3.9240    -4.3940    -8.9950 ca         1 FPX      -0.112000
     32 C32         -2.7330    -4.5420    -8.3090 ca         1 FPX      -0.084500
     33 C33         -2.0380    -3.4280    -7.8810 ca         1 FPX      -0.116000
     34 N34         -0.5720     0.0480    -6.0680 nb         1 FPX      -0.743000
     35 C35          0.0940     0.0570    -4.9180 ca         1 FPX       0.453200
     36 N36          0.7080     1.1990    -4.4700 n          1 FPX       0.006700
     37 C37          0.6330     2.4250    -5.2680 c3         1 FPX       0.043300
     38 C38          1.3760     1.2050    -3.3000 c          1 FPX       0.617700
     39 O39          1.9110     2.2290    -2.9140 o          1 FPX      -0.669500
     40 H1          -0.3610     0.7500    -0.6930 hc         1 FPX       0.009033
     41 H1A         -0.3610     0.2250     0.9960 hc         1 FPX       0.009033
     42 H1B         -0.3610    -0.9750    -0.3030 hc         1 FPX       0.009033
     43 H3           1.6540     0.0010     2.1320 ha         1 FPX       0.107000
     44 H4           4.1160    -0.0010     2.1410 ha         1 FPX       0.102000
     45 HN6          6.1770     0.5230     0.7030 hn         1 FPX       0.170500
     46 H10          7.9850     0.4180     0.9250 ha         1 FPX       0.104000
     47 H11         10.4430     0.2860     1.0160 ha         1 FPX       0.113000
     48 H12         11.6800    -0.9470    -0.7190 ha         1 FPX       0.122000
     49 H14          8.0130    -1.9450    -2.6610 ha         1 FPX       0.139000
     50 H19          4.1430    -0.0060    -2.1400 ha         1 FPX       0.149000
     51 H22          1.0620    -2.1030    -2.4470 ha         1 FPX       0.119000
     52 H24         -0.4610    -3.2080    -4.1030 h4         1 FPX      -0.012900
     53 HN27        -1.8110    -0.2090    -8.2700 hn         1 FPX       0.293800
     54 H29         -4.1320    -1.0240    -9.0240 ha         1 FPX       0.123500
     55 H30         -5.3590    -3.0200    -9.7910 ha         1 FPX       0.103000
     56 H31         -4.4660    -5.2690    -9.3320 ha         1 FPX       0.103000
     57 H32         -2.3420    -5.5320    -8.1110 ha         1 FPX       0.103000
     58 H33         -1.1050    -3.5440    -7.3430 ha         1 FPX       0.123500
     59 H37          1.0740     2.2500    -6.2420 h1         1 FPX       0.031367
     60 H37A         1.1720     3.2180    -4.7640 h1         1 FPX       0.031367
     61 H37B        -0.4050     2.7140    -5.3890 h1         1 FPX       0.031367
@<TRIPOS>BOND
     1     1     2 1   
     2     1    40 1   
     3     1    41 1   
     4     1    42 1   
     5     2     3 ar  
     6     2    20 ar  
     7     3     4 ar  
     8     3    43 1   
     9     4     5 ar  
    10     4    44 1   
    11     5     6 1   
    12     5    19 ar  
    13     6     7 1   
    14     6    45 1   
    15     7     8 2   
    16     7     9 1   
    17     9    10 ar  
    18     9    14 ar  
    19    10    11 ar  
    20    10    46 1   
    21    11    12 ar  
    22    11    47 1   
    23    12    13 ar  
    24    12    48 1   
    25    13    14 ar  
    26    13    15 1   
    27    14    49 1   
    28    15    16 1   
    29    15    17 1   
    30    15    18 1   
    31    19    20 ar  
    32    19    50 1   
    33    20    21 1   
    34    21    22 2   
    35    21    38 1   
    36    22    23 1   
    37    22    51 1   
    38    23    24 ar  
    39    23    35 ar  
    40    24    25 ar  
    41    24    52 1   
    42    25    26 ar  
    43    26    27 1   
    44    26    34 ar  
    45    27    28 1   
    46    27    53 1   
    47    28    29 ar  
    48    28    33 ar  
    49    29    30 ar  
    50    29    54 1   
    51    30    31 ar  
    52    30    55 1   
    53    31    32 ar  
    54    31    56 1   
    55    32    33 ar  
    56    32    57 1   
    57    33    58 1   
    58    34    35 ar  
    59    35    36 1   
    60    36    37 1   
    61    36    38 1   
    62    37    59 1   
    63    37    60 1   
    64    37    61 1   
    65    38    39 2   
@<TRIPOS>SUBSTRUCTURE
     1 FPX         1 TEMP              0 ****  ****    0 ROOT
