@<TRIPOS>MOLECULE
molecule
   61    65     1     0     0
SMALL
bcc


@<TRIPOS>ATOM
      1 C1           0.0000     0.0000     0.0000 c3         1 FPX      -0.045800
      2 C2           1.5060     0.0000     0.0000 ca         1 FPX      -0.075300
      3 C3           2.1970     0.0000     1.1950 ca         1 FPX      -0.115000
      4 C4           3.5790    -0.0010     1.2000 ca         1 FPX      -0.150000
      5 C5           4.2830    -0.0010     0.0020 ca         1 FPX       0.042600
      6 N6           5.6810    -0.0020     0.0110 ns         1 FPX      -0.471100
      7 C7           6.3610    -0.6780    -0.9370 c          1 FPX       0.676700
      8 O8           5.7610    -1.2260    -1.8420 o          1 FPX      -0.591100
      9 C9           7.8360    -0.7530    -0.8760 ca         1 FPX      -0.151600
     10 C10          8.5280    -0.1260     0.1610 ca         1 FPX      -0.079000
     11 C11          9.9050    -0.2000     0.2120 ca         1 FPX      -0.141000
     12 C12         10.5990    -0.8940    -0.7620 ca         1 FPX      -0.061000
     13 C13          9.9200    -1.5170    -1.7940 ca         1 FPX      -0.190300
     14 C14          8.5430    -1.4570    -1.8530 ca         1 FPX      -0.019000
     15 C15         10.6850    -2.2720    -2.8510 c3         1 FPX       0.676200
     16 F16         12.0550    -2.1990    -2.5770 f          1 FPX      -0.220633
     17 F17         10.2810    -3.6110    -2.8530 f          1 FPX      -0.220633
     18 F18         10.4290    -1.7060    -4.1040 f          1 FPX      -0.220633
     19 C19          3.5970    -0.0030    -1.2040 ca         1 FPX      -0.092000
     20 C20          2.2040    -0.0070    -1.2090 ca         1 FPX      -0.020800
     21 C21          1.4640    -0.0140    -2.4930 cc         1 FPX      -0.145400
     22 C22          0.8540    -1.1570    -2.9320 cd         1 FPX      -0.013200
     23 C23          0.1560    -1.1320    -4.1610 ca         1 FPX      -0.423400
     24 C24         -0.4860    -2.2770    -4.6560 ca         1 FPX       0.547200
     25 N25         -1.1240    -2.1950    -5.8090 nb         1 FPX      -0.808000
     26 C26         -1.1620    -1.0580    -6.4950 ca         1 FPX       0.979900
     27 N27         -1.8440    -1.0280    -7.6960 nu         1 FPX      -0.744300
     28 C28         -2.5420    -2.1580    -8.1320 ca         1 FPX       0.147600
     29 C29         -3.7390    -2.0130    -8.8220 ca         1 FPX      -0.140000
     30 C30         -4.4260    -3.1320    -9.2520 ca         1 FPX      -0.114500
     31 C31         -3.9240    -4.3940    -8.9950 ca         1 FPX      -0.142000
     32 C32         -2.7330    -4.5420    -8.3090 ca         1 FPX      -0.114500
     33 C33         -2.0380    -3.4280    -7.8810 ca         1 FPX      -0.140000
     34 N34         -0.5720     0.0480    -6.0680 nb         1 FPX      -0.845000
     35 C35          0.0940     0.0570    -4.9180 ca         1 FPX       0.640200
     36 N36          0.7080     1.1990    -4.4700 n          1 FPX      -0.410300
     37 C37          0.6330     2.4250    -5.2680 c3         1 FPX       0.086300
     38 C38          1.3760     1.2050    -3.3000 c          1 FPX       0.706700
     39 O39          1.9110     2.2290    -2.9140 o          1 FPX      -0.620500
     40 H1          -0.3610     0.7500    -0.6930 hc         1 FPX       0.044033
     41 H1A         -0.3610     0.2250     0.9960 hc         1 FPX       0.044033
     42 H1B         -0.3610    -0.9750    -0.3030 hc         1 FPX       0.044033
     43 H3           1.6540     0.0010     2.1320 ha         1 FPX       0.134000
     44 H4           4.1160    -0.0010     2.1410 ha         1 FPX       0.128000
     45 HN6          6.1770     0.5230     0.7030 hn         1 FPX       0.324500
     46 H10          7.9850     0.4180     0.9250 ha         1 FPX       0.131000
     47 H11         10.4430     0.2860     1.0160 ha         1 FPX       0.144000
     48 H12         11.6800    -0.9470    -0.7190 ha         1 FPX       0.154000
     49 H14          8.0130    -1.9450    -2.6610 ha         1 FPX       0.172000
     50 H19          4.1430    -0.0060    -2.1400 ha         1 FPX       0.171000
     51 H22          1.0620    -2.1030    -2.4470 ha         1 FPX       0.149000
     52 H24         -0.4610    -3.2080    -4.1030 h4         1 FPX       0.039100
     53 HN27        -1.8110    -0.2090    -8.2700 hn         1 FPX       0.468800
     54 H29         -4.1320    -1.0240    -9.0240 ha         1 FPX       0.147000
     55 H30         -5.3590    -3.0200    -9.7910 ha         1 FPX       0.132000
     56 H31         -4.4660    -5.2690    -9.3320 ha         1 FPX       0.129000
     57 H32         -2.3420    -5.5320    -8.1110 ha         1 FPX       0.132000
     58 H33         -1.1050    -3.5440    -7.3430 ha         1 FPX       0.147000
     59 H37          1.0740     2.2500    -6.2420 h1         1 FPX       0.061700
     60 H37A         1.1720     3.2180    -4.7640 h1         1 FPX       0.061700
     61 H37B        -0.4050     2.7140    -5.3890 h1         1 FPX       0.061700
@<TRIPOS>BOND
     1     1     2 1
     2     2     3 ar
     3     2    20 ar
     4     3     4 ar
     5     4     5 ar
     6     5     6 1
     7     5    19 ar
     8     6     7 1
     9     7     8 2
    10     7     9 1
    11     9    10 ar
    12     9    14 ar
    13    10    11 ar
    14    11    12 ar
    15    12    13 ar
    16    13    14 ar
    17    13    15 1
    18    15    16 1
    19    15    17 1
    20    15    18 1
    21    19    20 ar
    22    20    21 1
    23    21    22 2
    24    21    38 1
    25    22    23 1
    26    23    24 ar
    27    23    35 ar
    28    24    25 ar
    29    25    26 ar
    30    26    27 1
    31    26    34 ar
    32    27    28 1
    33    28    29 ar
    34    28    33 ar
    35    29    30 ar
    36    30    31 ar
    37    31    32 ar
    38    32    33 ar
    39    34    35 ar
    40    35    36 1
    41    36    37 1
    42    36    38 1
    43    38    39 2
    44     1    40 1
    45     1    41 1
    46     1    42 1
    47     3    43 1
    48     4    44 1
    49     6    45 1
    50    10    46 1
    51    11    47 1
    52    12    48 1
    53    14    49 1
    54    19    50 1
    55    22    51 1
    56    24    52 1
    57    27    53 1
    58    29    54 1
    59    30    55 1
    60    31    56 1
    61    32    57 1
    62    33    58 1
    63    37    59 1
    64    37    60 1
    65    37    61 1
@<TRIPOS>SUBSTRUCTURE
     1 FPX         1 TEMP              0 ****  ****    0 ROOT
