@<TRIPOS>MOLECULE
molecule
   14    14     1     0     0
SMALL
bcc


@<TRIPOS>ATOM
      1 N1           0.0000     0.0000     0.0000 ns         1 FPY      -0.469100
      2 C2           1.3390     0.0000     0.0000 c          1 FPY       0.821500
      3 O2           1.9300    -0.0010    -1.0630 o          1 FPY      -0.674500
      4 N3           2.0510     0.0000     1.1450 ns         1 FPY      -0.585900
      5 C4           1.3190     0.0010     2.4230 c3         1 FPY       0.349700
      6 O4           1.7260     1.1550     3.1610 oh         1 FPY      -0.602800
      7 C5          -0.1940     0.0010     2.3550 c2         1 FPY       0.008300
      8 F5          -0.9380     0.0010     3.4820 f          1 FPY      -0.145500
      9 C6          -0.7630    -0.0000     1.1620 c2         1 FPY      -0.036400
     10 HN1         -0.4750     0.0000    -0.8810 hn         1 FPY       0.355500
     11 HN3          3.0520    -0.0000     1.1270 hn         1 FPY       0.362500
     12 H4           1.6230    -0.8800     2.9770 h2         1 FPY       0.040700
     13 HO4          2.2310     0.8860     3.9100 ho         1 FPY       0.410000
     14 H6          -1.8440    -0.0010     1.0890 h4         1 FPY       0.165000
@<TRIPOS>BOND
     1     1     2 1
     2     1     9 1
     3     1    10 1
     4     2     3 2
     5     2     4 1
     6     4     5 1
     7     4    11 1
     8     5     6 1
     9     5     7 1
    10     5    12 1
    11     6    13 1
    12     7     8 1
    13     7     9 2
    14     9    14 1
@<TRIPOS>SUBSTRUCTURE
     1 FPY         1 TEMP              0 ****  ****    0 ROOT
