@<TRIPOS>MOLECULE
molecule
   34    36     1     0     0
SMALL
bcc


@<TRIPOS>ATOM
      1 C10          0.0000     0.0000     0.0000 ca         1 FPZ      -0.133500
      2 C01          4.8230     0.0010     5.7000 ca         1 FPZ      -0.121000
      3 C02          4.5570     1.1930     5.0510 ca         1 FPZ      -0.133500
      4 C03          4.2750     1.1990     3.7000 ca         1 FPZ      -0.107000
      5 C04          4.2590     0.0000     2.9900 ca         1 FPZ       0.046333
      6 C05          4.5270    -1.1970     3.6480 ca         1 FPZ      -0.107000
      7 C06          4.8130    -1.1910     4.9980 ca         1 FPZ      -0.133500
      8 C08          2.0740     0.0000     1.2080 ca         1 FPZ       0.046333
      9 C09          1.3800     0.0000     0.0000 ca         1 FPZ      -0.107000
     10 C11         -0.6940    -0.0010     1.1970 ca         1 FPZ      -0.121000
     11 C12         -0.0090    -0.0060     2.3990 ca         1 FPZ      -0.133500
     12 C13          1.3710    -0.0110     2.4100 ca         1 FPZ      -0.107000
     13 C14          4.2670     1.7120     0.7500 ca         1 FPZ       0.046333
     14 C15          3.2420     2.6480     0.6340 ca         1 FPZ      -0.107000
     15 C16          3.5360     3.9510     0.2860 ca         1 FPZ      -0.133500
     16 C17          4.8470     4.3280     0.0520 ca         1 FPZ      -0.121000
     17 C18          5.8680     3.4020     0.1650 ca         1 FPZ      -0.133500
     18 C19          5.5850     2.0960     0.5130 ca         1 FPZ      -0.107000
     19 P07          3.8880    -0.0000     1.2140 p3         1 FPZ      -0.336000
     20 H101        -0.5410     0.0020    -0.9390 ha         1 FPZ       0.130500
     21 H021         4.5680     2.1240     5.6050 ha         1 FPZ       0.130500
     22 H031         4.0670     2.1330     3.1930 ha         1 FPZ       0.139500
     23 H051         4.5170    -2.1310     3.1000 ha         1 FPZ       0.139500
     24 H061         5.0220    -2.1230     5.5100 ha         1 FPZ       0.130500
     25 H091         1.9230     0.0040    -0.9380 ha         1 FPZ       0.139500
     26 H111        -1.7770     0.0010     1.1920 ha         1 FPZ       0.129000
     27 H121        -0.5580    -0.0100     3.3340 ha         1 FPZ       0.130500
     28 H131         1.9060    -0.0130     3.3520 ha         1 FPZ       0.139500
     29 H151         2.2160     2.3530     0.8170 ha         1 FPZ       0.139500
     30 H161         2.7400     4.6790     0.1960 ha         1 FPZ       0.130500
     31 H171         5.0740     5.3510    -0.2210 ha         1 FPZ       0.129000
     32 H181         6.8930     3.7020    -0.0190 ha         1 FPZ       0.130500
     33 H191         6.3860     1.3720     0.6020 ha         1 FPZ       0.139500
     34 H011         5.0460     0.0010     6.7600 ha         1 FPZ       0.129000
@<TRIPOS>BOND
     1     7     6 ar
     2     7     2 ar
     3     6     5 ar
     4    14    15 ar
     5    14    13 ar
     6    15    16 ar
     7     2     3 ar
     8     5    19 1
     9     5     4 ar
    10    19    13 1
    11    19     8 1
    12    13    18 ar
    13    16    17 ar
    14     3     4 ar
    15    18    17 ar
    16     8     9 ar
    17     8    12 ar
    18     9     1 ar
    19    12    11 ar
    20     1    10 ar
    21    11    10 ar
    22     1    20 1
    23     2    34 1
    24     3    21 1
    25     4    22 1
    26     6    23 1
    27     7    24 1
    28     9    25 1
    29    10    26 1
    30    11    27 1
    31    12    28 1
    32    14    29 1
    33    15    30 1
    34    16    31 1
    35    17    32 1
    36    18    33 1
@<TRIPOS>SUBSTRUCTURE
     1 FPZ         1 TEMP              0 ****  ****    0 ROOT
