@<TRIPOS>MOLECULE
FQC
   33    36     1     0     0
SMALL
bcc


@<TRIPOS>ATOM
      1 C1           0.0000     0.0000     0.0000 ca         1 FQC      -0.191600
      2 C2           1.4130     0.0000     0.0000 ca         1 FQC       0.148400
      3 C3           2.0990     0.0000     1.2180 ca         1 FQC      -0.068000
      4 C4           1.3910    -0.0000     2.3990 ca         1 FQC      -0.092000
      5 C5          -0.0000    -0.0000     2.3960 ca         1 FQC       0.085900
      6 C6          -0.6980    -0.0010     1.2050 ca         1 FQC      -0.047000
      7 F7          -0.6730    -0.0020     3.5670 f          1 FQC      -0.121900
      8 C8          -0.6920    -0.0070    -1.2970 c          1 FQC       0.622100
      9 N9           0.0720    -0.0110    -2.4140 n          1 FQC       0.165500
     10 C10          1.4340    -0.0100    -2.3220 cc         1 FQC       0.271400
     11 N11          2.0720     0.0010    -1.1840 nd         1 FQC      -0.560100
     12 N12          2.1750    -0.0170    -3.4950 na         1 FQC       0.348500
     13 N13          1.6750    -0.0170    -4.8080 nc         1 FQC      -0.707800
     14 C14          2.7090    -0.0230    -5.6060 cd         1 FQC       0.637900
     15 N15          3.8240    -0.0260    -4.8750 nd         1 FQC      -0.694000
     16 C16          3.5210    -0.0160    -3.6030 cc         1 FQC       0.350400
     17 O17         -1.9080    -0.0080    -1.3640 o          1 FQC      -0.627500
     18 C18         -0.5400    -0.0180    -3.6740 ca         1 FQC      -0.115400
     19 C19         -0.8440    -1.2230    -4.2950 ca         1 FQC       0.014400
     20 C20         -1.4480    -1.2250    -5.5380 ca         1 FQC      -0.090000
     21 C21         -1.7490    -0.0290    -6.1640 ca         1 FQC      -0.004600
     22 C22         -1.4480     1.1730    -5.5470 ca         1 FQC      -0.091000
     23 C23         -0.8500     1.1810    -4.3030 ca         1 FQC      -0.032000
     24 Cl1         -0.4640    -2.7240    -3.5100 cl         1 FQC      -0.009400
     25 Cl2         -2.5060    -0.0350    -7.7260 cl         1 FQC      -0.011400
     26 H1           3.1820    -0.0000     1.2330 ha         1 FQC       0.124000
     27 H2           1.9240    -0.0000     3.3420 ha         1 FQC       0.121000
     28 H3          -1.7810    -0.0000     1.2080 ha         1 FQC       0.142000
     29 H4           2.6670    -0.0270    -6.6890 h5         1 FQC       0.028100
     30 H5           4.2270    -0.0160    -2.7810 h5         1 FQC       0.045100
     31 H6          -1.6850    -2.1640    -6.0230 ha         1 FQC       0.129000
     32 H7          -1.6870     2.1080    -6.0390 ha         1 FQC       0.119000
     33 H8          -0.6140     2.1230    -3.8210 ha         1 FQC       0.111000
@<TRIPOS>BOND
     1     1     2 ar  
     2     1     6 ar  
     3     1     8 1   
     4     2     3 ar  
     5     2    11 1   
     6     3     4 ar  
     7     3    26 1   
     8     4     5 ar  
     9     4    27 1   
    10     5     6 ar  
    11     5     7 1   
    12     6    28 1   
    13     8     9 1   
    14     8    17 2   
    15     9    10 1   
    16     9    18 1   
    17    10    11 2   
    18    10    12 1   
    19    12    13 1   
    20    12    16 1   
    21    13    14 2   
    22    14    15 1   
    23    14    29 1   
    24    15    16 2   
    25    16    30 1   
    26    18    19 ar  
    27    18    23 ar  
    28    19    20 ar  
    29    19    24 1   
    30    20    21 ar  
    31    20    31 1   
    32    21    22 ar  
    33    21    25 1   
    34    22    23 ar  
    35    22    32 1   
    36    23    33 1   
@<TRIPOS>SUBSTRUCTURE
     1 FQC         1 TEMP              0 ****  ****    0 ROOT
