@<TRIPOS>MOLECULE
molecule
   33    36     1     0     0
SMALL
bcc


@<TRIPOS>ATOM
      1 C1           0.0000     0.0000     0.0000 ca         1 FQC      -0.186600
      2 C2           1.4130     0.0000     0.0000 ca         1 FQC       0.201400
      3 C3           2.0990     0.0000     1.2180 ca         1 FQC      -0.098000
      4 C4           1.3910    -0.0000     2.3990 ca         1 FQC      -0.126000
      5 C5          -0.0000    -0.0000     2.3960 ca         1 FQC       0.110900
      6 C6          -0.6980    -0.0010     1.2050 ca         1 FQC      -0.088000
      7 F7          -0.6730    -0.0020     3.5670 f          1 FQC      -0.132900
      8 C8          -0.6920    -0.0070    -1.2970 c          1 FQC       0.720100
      9 N9           0.0720    -0.0110    -2.4140 n          1 FQC      -0.288500
     10 C10          1.4340    -0.0100    -2.3220 cc         1 FQC       0.631400
     11 N11          2.0720     0.0010    -1.1840 nd         1 FQC      -0.682100
     12 N12          2.1750    -0.0170    -3.4950 na         1 FQC      -0.094500
     13 N13          1.6750    -0.0170    -4.8080 nc         1 FQC      -0.545800
     14 C14          2.7090    -0.0230    -5.6060 cd         1 FQC       0.594900
     15 N15          3.8240    -0.0260    -4.8750 nd         1 FQC      -0.753000
     16 C16          3.5210    -0.0160    -3.6030 cc         1 FQC       0.511400
     17 O17         -1.9080    -0.0080    -1.3640 o          1 FQC      -0.584500
     18 C18         -0.5400    -0.0180    -3.6740 ca         1 FQC       0.044600
     19 C19         -0.8440    -1.2230    -4.2950 ca         1 FQC       0.066400
     20 C20         -1.4480    -1.2250    -5.5380 ca         1 FQC      -0.112000
     21 C21         -1.7490    -0.0290    -6.1640 ca         1 FQC       0.048400
     22 C22         -1.4480     1.1730    -5.5470 ca         1 FQC      -0.116000
     23 C23         -0.8500     1.1810    -4.3030 ca         1 FQC      -0.075000
     24 Cl1         -0.4640    -2.7240    -3.5100 cl         1 FQC      -0.085400
     25 Cl2         -2.5060    -0.0350    -7.7260 cl         1 FQC      -0.093400
     26 H1           3.1820    -0.0000     1.2330 ha         1 FQC       0.158000
     27 H2           1.9240    -0.0000     3.3420 ha         1 FQC       0.154000
     28 H3          -1.7810    -0.0000     1.2080 ha         1 FQC       0.172000
     29 H4           2.6670    -0.0270    -6.6890 h5         1 FQC       0.089100
     30 H5           4.2270    -0.0160    -2.7810 h5         1 FQC       0.096100
     31 H6          -1.6850    -2.1640    -6.0230 ha         1 FQC       0.162000
     32 H7          -1.6870     2.1080    -6.0390 ha         1 FQC       0.153000
     33 H8          -0.6140     2.1230    -3.8210 ha         1 FQC       0.150000
@<TRIPOS>BOND
     1    25    21 1
     2    21    20 ar
     3    21    22 ar
     4    20    19 ar
     5    22    23 ar
     6    24    19 1
     7    19    18 ar
     8    17     8 2
     9    23    18 ar
    10    18     9 1
    11     8     9 1
    12     8     1 1
    13     9    10 1
    14     6     1 ar
    15     6     5 ar
    16     1     2 ar
    17     7     5 1
    18     5     4 ar
    19    13    12 1
    20    13    14 2
    21    10    12 1
    22    10    11 2
    23    12    16 1
    24     2    11 1
    25     2     3 ar
    26    14    15 1
    27     4     3 ar
    28    16    15 2
    29     3    26 1
    30     4    27 1
    31     6    28 1
    32    14    29 1
    33    16    30 1
    34    20    31 1
    35    22    32 1
    36    23    33 1
@<TRIPOS>SUBSTRUCTURE
     1 FQC         1 TEMP              0 ****  ****    0 ROOT
