@<TRIPOS>MOLECULE
molecule
   24    26     1     0     0
SMALL
bcc


@<TRIPOS>ATOM
      1 C1           0.0000     0.0000     0.0000 cc         1 FQD       0.010000
      2 C2           1.3330     0.0000     0.0000 cd         1 FQD      -0.093100
      3 C6          -1.3030    -0.0180     3.9550 cd         1 FQD       0.507800
      4 C10         -1.2810     0.9200    -3.4120 ca         1 FQD      -0.173500
      5 C9          -2.3030    -0.0020    -3.5740 ca         1 FQD       0.138900
      6 C7          -0.5310     0.9240    -2.2540 ca         1 FQD      -0.066500
      7 C11         -2.5810    -0.9190    -2.5740 ca         1 FQD      -0.173500
      8 C8          -1.8400    -0.9190    -1.4100 ca         1 FQD      -0.066500
      9 C5          -0.8030    -0.0010    -1.2460 ca         1 FQD      -0.051000
     10 C           -0.6020    -0.0070     1.3260 cd         1 FQD      -0.241600
     11 C4          -1.9780    -0.0150     1.7080 c          1 FQD       0.715100
     12 O           -2.8580    -0.0160     0.8630 o          1 FQD      -0.628500
     13 N1          -2.2870    -0.0200     3.0190 ns         1 FQD      -0.461400
     14 N           -0.0450    -0.0110     3.6270 nc         1 FQD      -0.626100
     15 C3           0.3520    -0.0060     2.3360 cc         1 FQD       0.259300
     16 S            1.9650     0.0000     1.6350 ss         1 FQD      -0.066800
     17 H1           1.9450    -0.0000    -0.8940 h4         1 FQD       0.183000
     18 H2          -1.5740    -0.0220     5.0040 h5         1 FQD       0.063800
     19 H3          -1.0700     1.6370    -4.1950 ha         1 FQD       0.145000
     20 H4           0.2680     1.6440    -2.1280 ha         1 FQD       0.141500
     21 H5          -3.3840    -1.6350    -2.7040 ha         1 FQD       0.145000
     22 H6          -2.0570    -1.6370    -0.6280 ha         1 FQD       0.141500
     23 H7          -3.2460    -0.0260     3.3050 hn         1 FQD       0.342500
     24 F           -3.0310    -0.0060    -4.7120 f          1 FQD      -0.143900
@<TRIPOS>BOND
     1    16    15 1
     2    16     2 1
     3    14    15 1
     4    14     3 2
     5    15    10 2
     6     2     1 2
     7     3    13 1
     8    10     1 1
     9    10    11 1
    10     1     9 1
    11    13    11 1
    12    11    12 2
    13     6     9 ar
    14     6     4 ar
    15     9     8 ar
    16     4     5 ar
    17     8     7 ar
    18     5     7 ar
    19     5    24 1
    20     2    17 1
    21     3    18 1
    22     4    19 1
    23     6    20 1
    24     7    21 1
    25     8    22 1
    26    13    23 1
@<TRIPOS>SUBSTRUCTURE
     1 FQD         1 TEMP              0 ****  ****    0 ROOT
