@<TRIPOS>MOLECULE
FQG
   59    62     1     0     0
SMALL
bcc


@<TRIPOS>ATOM
      1 C1           0.0000     0.0000     0.0000 c          1 FQG       0.509600
      2 N1           1.3480     0.0000     0.0000 ns         1 FQG      -0.176900
      3 O1          -0.6070     0.0000     1.0530 o          1 FQG      -0.646100
      4 C2          -4.7850     0.0290    -2.5380 c          1 FQG       0.585700
      5 O2          -4.6630     0.0250    -1.3280 o          1 FQG      -0.604100
      6 C3          -8.6730     0.0530    -4.2700 ca         1 FQG       0.019400
      7 N3          -8.5450    -0.8010    -7.1440 nb         1 FQG      -0.561000
      8 C4          -8.5270     0.0480    -2.8960 ca         1 FQG      -0.117000
      9 N4          -1.2360     0.0140    -3.4270 na         1 FQG       0.596300
     10 C5          -7.2680     0.0400    -2.3290 ca         1 FQG       0.020400
     11 N5          -0.2010     0.0060    -2.4840 nc         1 FQG      -0.652800
     12 C6          -6.1320     0.0370    -3.1440 ca         1 FQG      -0.166600
     13 C7          -6.2740     0.0410    -4.5320 ca         1 FQG      -0.057000
     14 C8          -7.5440     0.0450    -5.0950 cp         1 FQG      -0.152500
     15 C9          -7.7030     0.0490    -6.5690 cp         1 FQG       0.426800
     16 C10         -8.7150    -0.8280    -8.4500 ca         1 FQG       0.408200
     17 C11         -8.0160     0.0330    -9.2750 ca         1 FQG      -0.217300
     18 C12         -7.1240     0.9380    -8.7150 ca         1 FQG      -0.067000
     19 C13         -6.9660     0.9460    -7.3420 ca         1 FQG      -0.207300
     20 C14         -1.0810     0.0100    -4.8190 ca         1 FQG      -0.137200
     21 C15         -2.4200     0.0180    -2.7530 cc         1 FQG      -0.258700
     22 C16         -1.9880    -0.6730    -5.6180 ca         1 FQG      -0.112000
     23 C17         -0.0240     0.6960    -5.4030 ca         1 FQG      -0.112000
     24 C18         -0.7380     0.0060    -1.2790 cd         1 FQG       0.333800
     25 C19         -2.1410     0.0130    -1.4240 cd         1 FQG      -0.268300
     26 C20         -1.8320    -0.6740    -6.9910 ca         1 FQG      -0.080000
     27 C21          0.1260     0.6920    -6.7760 ca         1 FQG      -0.080000
     28 C22         -0.7760     0.0060    -7.5690 ca         1 FQG      -0.100000
     29 C23          2.0810    -0.0060     1.2680 c3         1 FQG       0.053000
     30 C24          3.5850    -0.0040     0.9890 c3         1 FQG       0.147800
     31 C25          4.3500    -0.0100     2.3130 c3         1 FQG      -0.033100
     32 C26          3.9540     1.2490     0.1920 c3         1 FQG      -0.033100
     33 H22          1.8480    -0.0270    -0.8670 hn         1 FQG       0.198500
     34 H21         -3.7910     0.0820    -4.3200 hn         1 FQG       0.180500
     35 H23          4.8670    -1.2830     0.2440 ho         1 FQG       0.397000
     36 H10         -9.4040     0.0510    -2.2610 ha         1 FQG       0.131000
     37 H9          -5.3970     0.0340    -5.1680 ha         1 FQG       0.107000
     38 H12         -9.4120    -1.5360    -8.8830 h4         1 FQG      -0.016900
     39 H5          -8.1630     0.0020   -10.3480 ha         1 FQG       0.115000
     40 H4          -6.5650     1.6230    -9.3410 ha         1 FQG       0.110000
     41 H8          -6.2780     1.6390    -6.8720 ha         1 FQG       0.116000
     42 H6          -2.8160    -1.2060    -5.1660 ha         1 FQG       0.122000
     43 H7           0.6820     1.2340    -4.7820 ha         1 FQG       0.122000
     44 H11         -2.8640     0.0960    -0.6220 ha         1 FQG       0.203000
     45 H2          -2.5380    -1.2080    -7.6150 ha         1 FQG       0.108500
     46 H3           0.9510     1.2260    -7.2320 ha         1 FQG       0.108500
     47 H1          -0.6570     0.0040    -8.6460 ha         1 FQG       0.107000
     48 H19          1.8190    -0.8930     1.8320 h1         1 FQG       0.033200
     49 H20          1.8190     0.8760     1.8400 h1         1 FQG       0.033200
     50 H15          4.0700     0.8580     2.8960 hc         1 FQG       0.014533
     51 H14          4.1090    -0.9100     2.8660 hc         1 FQG       0.014533
     52 H13          5.4150     0.0170     2.1150 hc         1 FQG       0.014533
     53 H18          4.9940     1.4960     0.3680 hc         1 FQG       0.014533
     54 H16          3.8010     1.0640    -0.8640 hc         1 FQG       0.014533
     55 H17          3.3290     2.0750     0.5080 hc         1 FQG       0.014533
     56 N2          -3.6910     0.0250    -3.3260 ns         1 FQG      -0.013100
     57 O3           3.9310    -1.1680     0.2330 oh         1 FQG      -0.588800
     58 Cl1         -7.0950     0.0350    -0.6010 cl         1 FQG       0.059600
     59 Cl2        -10.2590     0.0630    -4.9740 cl         1 FQG       0.015600
@<TRIPOS>BOND
     1     1     2 1   
     2     1     3 2   
     3     1    24 1   
     4     2    29 1   
     5     2    33 1   
     6     4     5 2   
     7     4    12 1   
     8     4    56 1   
     9     6     8 ar  
    10     6    14 ar  
    11     6    59 1   
    12     7    15 ar  
    13     7    16 ar  
    14     8    10 ar  
    15     8    36 1   
    16     9    11 1   
    17     9    20 1   
    18     9    21 1   
    19    10    12 ar  
    20    10    58 1   
    21    11    24 2   
    22    12    13 ar  
    23    13    14 ar  
    24    13    37 1   
    25    14    15 1   
    26    15    19 ar  
    27    16    17 ar  
    28    16    38 1   
    29    17    18 ar  
    30    17    39 1   
    31    18    19 ar  
    32    18    40 1   
    33    19    41 1   
    34    20    22 ar  
    35    20    23 ar  
    36    21    25 2   
    37    21    56 1   
    38    22    26 ar  
    39    22    42 1   
    40    23    27 ar  
    41    23    43 1   
    42    24    25 1   
    43    25    44 1   
    44    26    28 ar  
    45    26    45 1   
    46    27    28 ar  
    47    27    46 1   
    48    28    47 1   
    49    29    30 1   
    50    29    48 1   
    51    29    49 1   
    52    30    31 1   
    53    30    32 1   
    54    30    57 1   
    55    31    50 1   
    56    31    51 1   
    57    31    52 1   
    58    32    53 1   
    59    32    54 1   
    60    32    55 1   
    61    34    56 1   
    62    35    57 1   
@<TRIPOS>SUBSTRUCTURE
     1 FQG         1 TEMP              0 ****  ****    0 ROOT
