@<TRIPOS>MOLECULE
FQI
   14    14     1     0     0
SMALL
bcc


@<TRIPOS>ATOM
      1 Cl           0.0000     0.0000     0.0000 cl         1 FQI       0.172600
      2 C4           1.7350     0.0000     0.0000 cc         1 FQI       0.104300
      3 C2           3.8500     0.0000     0.8790 cd         1 FQI       0.094000
      4 O            6.4940     0.0030    -0.2310 o          1 FQI      -0.437100
      5 N            5.7380    -0.0020    -2.3200 nz         1 FQI       0.206600
      6 C1           4.1780    -0.0020    -0.4480 cc         1 FQI      -0.239700
      7 C3           2.4950     0.0000     1.1040 cd         1 FQI      -0.165000
      8 S            2.7040    -0.0060    -1.4050 ss         1 FQI      -0.190800
      9 H3           2.0710     0.0010     2.1010 ha         1 FQI       0.162000
     10 H2           4.5860     0.0000     1.6740 ha         1 FQI       0.148000
     11 HN1          5.3210    -0.8210    -2.7180 hn         1 FQI       0.248133
     12 HN2          5.3010     0.8140    -2.7020 hn         1 FQI       0.248133
     13 C            5.5400    -0.0000    -0.9870 c          1 FQI       0.401700
     14 HN3          6.7150     0.0120    -2.5330 hn         1 FQI       0.248133
@<TRIPOS>BOND
     1     1     2 1   
     2     2     7 2   
     3     2     8 1   
     4     3     6 2   
     5     3     7 1   
     6     3    10 1   
     7     4    13 2   
     8     5    11 1   
     9     5    12 1   
    10     5    13 1   
    11     5    14 1   
    12     6     8 1   
    13     6    13 1   
    14     7     9 1   
@<TRIPOS>SUBSTRUCTURE
     1 FQI         1 TEMP              0 ****  ****    0 ROOT
