@<TRIPOS>MOLECULE
FQJ
   36    38     1     0     0
SMALL
bcc


@<TRIPOS>ATOM
      1 N3           0.0000     0.0000     0.0000 nc         1 FQJ      -0.656800
      2 C4           0.7040    -0.0010     2.0810 cd         1 FQJ      -0.334300
      3 C6           3.4060    -0.0010     3.0590 c          1 FQJ       0.586700
      4 C7           4.8060    -0.0010     3.5280 ca         1 FQJ      -0.162600
      5 C8           5.0880    -0.0080     4.8970 ca         1 FQJ       0.018400
      6 C10          5.8550     0.0010     2.6050 ca         1 FQJ      -0.065000
      7 C20          1.8410    -0.6870    -2.2740 ca         1 FQJ      -0.115500
      8 C21          2.6570    -0.6850    -3.3890 ca         1 FQJ      -0.079000
      9 C22          4.2440     0.6890    -2.2300 ca         1 FQJ      -0.079000
     10 C1           1.8160     0.0000     1.2970 cc         1 FQJ      -0.244700
     11 N2           1.4010     0.0000     0.0000 na         1 FQJ       0.581300
     12 N5           3.1370     0.0000     1.7380 ns         1 FQJ      -0.008100
     13 C9          -0.4140    -0.0010     1.2420 cd         1 FQJ       0.380600
     14 C11          6.4010    -0.0140     5.3280 ca         1 FQJ      -0.112000
     15 C12          2.2260     0.0010    -1.1320 ca         1 FQJ      -0.129200
     16 O13          2.4960    -0.0020     3.8650 o          1 FQJ      -0.614100
     17 C14          7.4340    -0.0120     4.4070 ca         1 FQJ      -0.005600
     18 Cl2          3.7930    -0.0090     6.0520 cl         1 FQJ       0.054600
     19 C16          7.1600    -0.0000     3.0490 ca         1 FQJ      -0.110000
     20 Cl1          9.0800    -0.0190     4.9560 cl         1 FQJ      -0.008400
     21 C18         -1.8520    -0.0010     1.6910 c3         1 FQJ      -0.003400
     22 C19          3.4320     0.6910    -1.1130 ca         1 FQJ      -0.115500
     23 C23          3.8600    -0.0020    -3.3650 ca         1 FQJ      -0.103000
     24 H24          0.6880    -0.0020     3.1650 ha         1 FQJ       0.190000
     25 H26          5.6430     0.0100     1.5430 ha         1 FQJ       0.105000
     26 H33          0.8990    -1.2220    -2.2940 ha         1 FQJ       0.121500
     27 H34          2.3580    -1.2230    -4.2800 ha         1 FQJ       0.107000
     28 H35          5.1850     1.2250    -2.2150 ha         1 FQJ       0.107000
     29 H25          3.8860    -0.0410     1.0760 hn         1 FQJ       0.181500
     30 H27          6.6210    -0.0210     6.3880 ha         1 FQJ       0.130000
     31 H28          7.9730     0.0010     2.3330 ha         1 FQJ       0.119000
     32 H31         -2.4950     0.2000     0.8430 hc         1 FQJ       0.011367
     33 H30         -2.1000    -0.9690     2.1100 hc         1 FQJ       0.011367
     34 H29         -1.9960     0.7650     2.4430 hc         1 FQJ       0.011367
     35 H32          3.7330     1.2310    -0.2240 ha         1 FQJ       0.121500
     36 H36          4.4990    -0.0020    -4.2400 ha         1 FQJ       0.107000
@<TRIPOS>BOND
     1     1    11 1   
     2     1    13 2   
     3     2    10 2   
     4     2    13 1   
     5     2    24 1   
     6     3     4 1   
     7     3    12 1   
     8     3    16 2   
     9     4     5 ar  
    10     4     6 ar  
    11     5    14 ar  
    12     5    18 1   
    13     6    19 ar  
    14     6    25 1   
    15     7     8 ar  
    16     7    15 ar  
    17     7    26 1   
    18     8    23 ar  
    19     8    27 1   
    20     9    22 ar  
    21     9    23 ar  
    22     9    28 1   
    23    10    11 1   
    24    10    12 1   
    25    11    15 1   
    26    12    29 1   
    27    13    21 1   
    28    14    17 ar  
    29    14    30 1   
    30    15    22 ar  
    31    17    19 ar  
    32    17    20 1   
    33    19    31 1   
    34    21    32 1   
    35    21    33 1   
    36    21    34 1   
    37    22    35 1   
    38    23    36 1   
@<TRIPOS>SUBSTRUCTURE
     1 FQJ         1 TEMP              0 ****  ****    0 ROOT
