@<TRIPOS>MOLECULE
molecule
   36    38     1     0     0
SMALL
bcc


@<TRIPOS>ATOM
      1 N3           0.0000     0.0000     0.0000 nc         1 FQJ      -0.506800
      2 C4           0.7040    -0.0010     2.0810 cd         1 FQJ      -0.343300
      3 C6           3.4060    -0.0010     3.0590 c          1 FQJ       0.676700
      4 C7           4.8060    -0.0010     3.5280 ca         1 FQJ      -0.145600
      5 C8           5.0880    -0.0080     4.8970 ca         1 FQJ       0.088400
      6 C10          5.8550     0.0010     2.6050 ca         1 FQJ      -0.088000
      7 C20          1.8410    -0.6870    -2.2740 ca         1 FQJ      -0.149000
      8 C21          2.6570    -0.6850    -3.3890 ca         1 FQJ      -0.108500
      9 C22          4.2440     0.6890    -2.2300 ca         1 FQJ      -0.108500
     10 C1           1.8160     0.0000     1.2970 cc         1 FQJ       0.068300
     11 N2           1.4010     0.0000     0.0000 na         1 FQJ       0.116300
     12 N5           3.1370     0.0000     1.7380 ns         1 FQJ      -0.456100
     13 C9          -0.4140    -0.0010     1.2420 cd         1 FQJ       0.356600
     14 C11          6.4010    -0.0140     5.3280 ca         1 FQJ      -0.129000
     15 C12          2.2260     0.0010    -1.1320 ca         1 FQJ       0.044800
     16 O13          2.4960    -0.0020     3.8650 o          1 FQJ      -0.559100
     17 C14          7.4340    -0.0120     4.4070 ca         1 FQJ       0.059400
     18 Cl2          3.7930    -0.0090     6.0520 cl         1 FQJ      -0.042400
     19 C16          7.1600    -0.0000     3.0490 ca         1 FQJ      -0.132000
     20 Cl1          9.0800    -0.0190     4.9560 cl         1 FQJ      -0.086400
     21 C18         -1.8520    -0.0010     1.6910 c3         1 FQJ      -0.110400
     22 C19          3.4320     0.6910    -1.1130 ca         1 FQJ      -0.149000
     23 C23          3.8600    -0.0020    -3.3650 ca         1 FQJ      -0.139000
     24 H24          0.6880    -0.0020     3.1650 ha         1 FQJ       0.201000
     25 H26          5.6430     0.0100     1.5430 ha         1 FQJ       0.137000
     26 H33          0.8990    -1.2220    -2.2940 ha         1 FQJ       0.146000
     27 H34          2.3580    -1.2230    -4.2800 ha         1 FQJ       0.136500
     28 H35          5.1850     1.2250    -2.2150 ha         1 FQJ       0.136500
     29 H25          3.8860    -0.0410     1.0760 hn         1 FQJ       0.331500
     30 H27          6.6210    -0.0210     6.3880 ha         1 FQJ       0.165000
     31 H28          7.9730     0.0010     2.3330 ha         1 FQJ       0.152000
     32 H31         -2.4950     0.2000     0.8430 hc         1 FQJ       0.052367
     33 H30         -2.1000    -0.9690     2.1100 hc         1 FQJ       0.052367
     34 H29         -1.9960     0.7650     2.4430 hc         1 FQJ       0.052367
     35 H32          3.7330     1.2310    -0.2240 ha         1 FQJ       0.146000
     36 H36          4.4990    -0.0020    -4.2400 ha         1 FQJ       0.135000
@<TRIPOS>BOND
     1    20    17 1
     2    18     5 1
     3    14    17 ar
     4    14     5 ar
     5    17    19 ar
     6     5     4 ar
     7    19     6 ar
     8     4     6 ar
     9     4     3 1
    10    16     3 2
    11     3    12 1
    12    12    10 1
    13    10     2 2
    14    10    11 1
    15     2    13 1
    16    11    15 1
    17    11     1 1
    18    13     1 2
    19    13    21 1
    20    15     7 ar
    21    15    22 ar
    22     7     8 ar
    23     8    23 ar
    24    22     9 ar
    25    23     9 ar
    26     2    24 1
    27     6    25 1
    28     7    26 1
    29     8    27 1
    30     9    28 1
    31    12    29 1
    32    14    30 1
    33    19    31 1
    34    21    32 1
    35    21    33 1
    36    21    34 1
    37    22    35 1
    38    23    36 1
@<TRIPOS>SUBSTRUCTURE
     1 FQJ         1 TEMP              0 ****  ****    0 ROOT
