@<TRIPOS>MOLECULE
molecule
   49    52     1     0     0
SMALL
bcc


@<TRIPOS>ATOM
      1 C1           0.0000     0.0000     0.0000 ca         1 FQM      -0.107000
      2 C2           1.3820     0.0000     0.0000 ca         1 FQM      -0.102000
      3 C3          -0.6940     0.0010     1.1970 ca         1 FQM      -0.102000
      4 C4          -5.9590     4.8230     3.4250 ca         1 FQM      -0.042000
      5 C5          -3.2470     4.2820     6.6620 ca         1 FQM      -0.067000
      6 C6           2.0750     0.0000     1.1950 ca         1 FQM      -0.128000
      7 C7          -0.0080    -0.0040     2.3950 ca         1 FQM      -0.128000
      8 C8          -2.3690     4.1050     7.7120 ca         1 FQM      -0.131000
      9 C9          -5.0800     4.6520     4.4840 ca         1 FQM      -0.291300
     10 C10         -5.6620     4.2250     2.2130 ca         1 FQM      -0.307300
     11 C11         -1.8320     2.9410     5.2420 ca         1 FQM      -0.061000
     12 C12          2.6450     0.3950     5.6980 cc         1 FQM      -0.273300
     13 C13         -2.9840     3.7000     5.4220 cp         1 FQM      -0.140500
     14 C14         -0.9410     2.7750     6.3010 ca         1 FQM      -0.169600
     15 C15          1.3810     0.0020     2.3970 ca         1 FQM      -0.013200
     16 C16         -1.2190     3.3580     7.5410 ca         1 FQM       0.091400
     17 C17         -3.9300     3.8900     4.2950 cp         1 FQM       0.514800
     18 C18          3.6380    -0.4180     5.1140 cd         1 FQM       0.233800
     19 C19         -4.4970     3.4710     2.0930 ca         1 FQM       0.711200
     20 C20          1.6980     0.6360     4.7560 cd         1 FQM       0.105300
     21 C21          0.2840     1.9710     6.1190 c          1 FQM       0.689700
     22 C22          4.8510    -0.9240     5.7880 c          1 FQM       0.442600
     23 N23         -3.6730     3.3340     3.1180 nb         1 FQM      -0.783000
     24 N24          3.2950    -0.6480     3.8610 nc         1 FQM      -0.523800
     25 N25          2.0810     0.0020     3.6110 na         1 FQM       0.187300
     26 N26         -4.1930     2.8670     0.8800 nv         1 FQM      -1.013500
     27 N27          5.7260    -1.6950     5.1120 nz         1 FQM      -0.676400
     28 O29          1.0600     1.8270     7.0430 o          1 FQM      -0.561100
     29 O30          5.0620    -0.6440     6.9530 o          1 FQM      -0.395100
     30 Cl1         -0.1120     3.1550     8.8620 cl         1 FQM      -0.050400
     31 H1          -0.5410     0.0020    -0.9390 ha         1 FQM       0.151000
     32 H2           1.9230    -0.0010    -0.9390 ha         1 FQM       0.153000
     33 H3          -1.7770    -0.0010     1.1940 ha         1 FQM       0.153000
     34 H6           3.1580     0.0020     1.1930 ha         1 FQM       0.146000
     35 H7          -0.5520    -0.0030     3.3320 ha         1 FQM       0.146000
     36 H8          -2.5800     4.5580     8.6740 ha         1 FQM       0.162000
     37 H9          -5.2850     5.1070     5.4450 ha         1 FQM       0.142000
     38 H10         -6.3310     4.3370     1.3690 ha         1 FQM       0.144000
     39 H11         -1.6230     2.4900     4.2800 ha         1 FQM       0.146000
     40 H12          2.6370     0.7580     6.7190 ha         1 FQM       0.234000
     41 H13         -3.3400     2.3540     0.7770 hn         1 FQM       0.439300
     42 H14         -4.8250     2.9470     0.1080 hn         1 FQM       0.439300
     43 H15          5.2640    -2.5240     4.7930 hn         1 FQM       0.480467
     44 H16          6.0800    -1.1880     4.3260 hn         1 FQM       0.480467
     45 H4          -6.8600     5.4130     3.5450 ha         1 FQM       0.147000
     46 H273         6.4840    -1.9480     5.7150 hn         1 FQM       0.480467
     47 N28          0.5420     1.3950     4.9270 ns         1 FQM      -0.460100
     48 H5          -4.1460     4.8710     6.8020 ha         1 FQM       0.155000
     49 H17         -0.0840     1.5350     4.1590 hn         1 FQM       0.350500
@<TRIPOS>BOND
     1    26    19 1
     2    19    10 ar
     3    19    23 ar
     4    10     4 ar
     5     2     6 ar
     6     2     1 ar
     7    23    17 ar
     8     6    15 ar
     9     1     3 ar
    10     4     9 ar
    11    15    25 1
    12    15     7 ar
    13     3     7 ar
    14    24    25 1
    15    24    18 2
    16    17     9 ar
    17    17    13 1
    18    25    20 1
    19    27    22 1
    20    18    22 1
    21    18    12 1
    22    22    29 2
    23    20    47 1
    24    20    12 2
    25    47    21 1
    26    11    13 ar
    27    11    14 ar
    28    13     5 ar
    29    14    21 1
    30    14    16 ar
    31    21    28 2
    32     5     8 ar
    33    16     8 ar
    34    16    30 1
    35     1    31 1
    36     2    32 1
    37     3    33 1
    38     4    45 1
    39     5    48 1
    40     6    34 1
    41     7    35 1
    42     8    36 1
    43     9    37 1
    44    10    38 1
    45    11    39 1
    46    12    40 1
    47    26    41 1
    48    26    42 1
    49    27    43 1
    50    27    44 1
    51    47    49 1
    52    46    27 1
@<TRIPOS>SUBSTRUCTURE
     1 FQM         1 TEMP              0 ****  ****    0 ROOT
