@<TRIPOS>MOLECULE
molecule
   26    26     1     0     0
SMALL
bcc


@<TRIPOS>ATOM
      1 N1A          0.0000     0.0000     0.0000 nb         1 FQP      -0.745000
      2 C2A          1.3180     0.0000     0.0000 ca         1 FQP       0.516300
      3 CM2          2.0500    -0.0020    -1.3170 c3         1 FQP       0.605600
      4 N3A          2.0130     0.0000     1.1190 nb         1 FQP      -0.769000
      5 C4A          1.4000     0.0010     2.2990 ca         1 FQP       0.666200
      6 N4A          2.1340     0.0010     3.4730 nv         1 FQP      -1.052500
      7 C5A          0.0040    -0.0050     2.3350 ca         1 FQP      -0.291900
      8 C6A         -0.6820     0.0010     1.1370 ca         1 FQP       0.471200
      9 C7A         -0.7340    -0.0040     3.6470 c3         1 FQP       0.206700
     10 O2          -2.4330    -1.3140     5.6590 o          1 FQP      -0.792500
     11 P1          -2.8650     0.0030     4.8410 p5         1 FQP       1.243800
     12 O1          -2.1410     0.0030     3.4030 os         1 FQP      -0.554200
     13 O3          -2.4580     1.2080     5.5970 o          1 FQP      -0.792500
     14 O           -4.4610     0.0100     4.6400 os         1 FQP      -0.646800
     15 P2          -5.1160     0.0100     6.1100 p5         1 FQP       1.183900
     16 O4          -4.6750     1.2150     6.8460 o          1 FQP      -0.873500
     17 O5          -6.7210     0.0170     5.9830 o          1 FQP      -0.873500
     18 O6          -4.6470    -1.3070     6.9070 o          1 FQP      -0.873500
     19 F1           1.1240    -0.0020    -2.3660 f          1 FQP      -0.236633
     20 F2           2.8530     1.1400    -1.4060 f          1 FQP      -0.236633
     21 F3           2.8530    -1.1430    -1.4040 f          1 FQP      -0.236633
     22 H4A1         2.0750     0.7800     4.0990 hn         1 FQP       0.430800
     23 H4A2         2.7630    -0.7520     3.6690 hn         1 FQP       0.430800
     24 H6A1        -1.7530    -0.1600     1.1260 h4         1 FQP       0.075100
     25 H7A1        -0.4700    -0.8910     4.2110 h1         1 FQP       0.072200
     26 H7A2        -0.4620     0.8780     4.2140 h1         1 FQP       0.072200
@<TRIPOS>BOND
     1     1     2 ar
     2     1     8 ar
     3     2     3 1
     4     2     4 ar
     5     3    19 1
     6     3    20 1
     7     3    21 1
     8     4     5 ar
     9     5     6 1
    10     5     7 ar
    11     6    22 1
    12     6    23 1
    13     7     8 ar
    14     7     9 1
    15     8    24 1
    16     9    12 1
    17     9    25 1
    18     9    26 1
    19    10    11 1
    20    11    12 1
    21    11    13 1
    22    11    14 1
    23    14    15 1
    24    15    16 1
    25    15    17 1
    26    15    18 1
@<TRIPOS>SUBSTRUCTURE
     1 FQP         1 TEMP              0 ****  ****    0 ROOT
