@<TRIPOS>MOLECULE
FQV
   27    27     1     0     0
SMALL
bcc


@<TRIPOS>ATOM
      1 C2           7.0300    -2.3120     1.2150 c1         1 FQV      -0.037100
      2 C3           5.8710    -2.1270     1.2030 c1         1 FQV      -0.228100
      3 C8           0.0000     0.0000     0.0000 ca         1 FQV       0.003500
      4 C14         -0.0010    -0.0060     2.3940 ca         1 FQV       0.003500
      5 C7           1.3820     0.0000     0.0000 ca         1 FQV      -0.075000
      6 C15          1.3820     0.0000     2.3940 ca         1 FQV      -0.075000
      7 C9          -0.6920     0.0000     1.1970 ca         1 FQV      -0.219500
      8 C6           2.0730     0.0000     1.1980 ca         1 FQV       0.173900
      9 C1           8.4120    -2.5330     1.0560 c3         1 FQV       0.105000
     10 C4           4.4140    -1.9150     1.2020 c3         1 FQV       0.328800
     11 N12         -2.9510    -1.5710     1.1920 nz         1 FQV      -0.135500
     12 O11         -2.8530     0.5520     2.4470 o          1 FQV      -0.492800
     13 O13         -2.8520     0.5580    -0.0520 o          1 FQV      -0.492800
     14 S10         -2.4540     0.0080     1.1960 sy         1 FQV       0.935200
     15 SE5          4.0330     0.0070     1.1980 ss         1 FQV      -0.410000
     16 H1          -0.5410    -0.0260    -0.9380 ha         1 FQV       0.127500
     17 H2          -0.5430    -0.0070     3.3320 ha         1 FQV       0.127500
     18 H3           1.9230     0.0390    -0.9380 ha         1 FQV       0.144500
     19 H4           1.9230    -0.0040     3.3320 ha         1 FQV       0.144500
     20 H5           8.5690    -3.3620     0.3770 hc         1 FQV       0.024700
     21 H6           8.8760    -1.6420     0.6520 hc         1 FQV       0.024700
     22 H7           8.8530    -2.7650     2.0180 hc         1 FQV       0.024700
     23 H8           3.9830    -2.3660     2.0880 h1         1 FQV       0.026200
     24 H9           3.9830    -2.3700     0.3190 h1         1 FQV       0.026200
     25 H10         -2.4030    -2.0920     0.5360 hn         1 FQV       0.314467
     26 H11         -2.8350    -1.9600     2.1070 hn         1 FQV       0.314467
     27 H123        -3.9160    -1.6170     0.9310 hn         1 FQV       0.314467
@<TRIPOS>BOND
     1     1     2 3   
     2     1     9 1   
     3     2    10 1   
     4     3     5 ar  
     5     3     7 ar  
     6     3    16 1   
     7     4     6 ar  
     8     4     7 ar  
     9     4    17 1   
    10     5     8 ar  
    11     5    18 1   
    12     6     8 ar  
    13     6    19 1   
    14     7    14 1   
    15     8    15 1   
    16     9    20 1   
    17     9    21 1   
    18     9    22 1   
    19    10    15 1   
    20    10    23 1   
    21    10    24 1   
    22    11    14 1   
    23    11    25 1   
    24    11    26 1   
    25    11    27 1   
    26    12    14 2   
    27    13    14 2   
@<TRIPOS>SUBSTRUCTURE
     1 FQV         1 TEMP              0 ****  ****    0 ROOT
