@<TRIPOS>MOLECULE
molecule
   27    27     1     0     0
SMALL
bcc


@<TRIPOS>ATOM
      1 C2           7.0300    -2.3120     1.2150 c1         1 FQV      -0.040100
      2 C3           5.8710    -2.1270     1.2030 c1         1 FQV      -0.197100
      3 C8           0.0000     0.0000     0.0000 ca         1 FQV      -0.034000
      4 C14         -0.0010    -0.0060     2.3940 ca         1 FQV      -0.034000
      5 C7           1.3820     0.0000     0.0000 ca         1 FQV      -0.104500
      6 C15          1.3820     0.0000     2.3940 ca         1 FQV      -0.104500
      7 C9          -0.6920     0.0000     1.1970 ca         1 FQV      -0.336500
      8 C6           2.0730     0.0000     1.1980 ca         1 FQV       0.166900
      9 C1           8.4120    -2.5330     1.0560 c3         1 FQV      -0.033000
     10 C4           4.4140    -1.9150     1.2020 c3         1 FQV       0.183800
     11 N12         -2.9510    -1.5710     1.1920 nz         1 FQV      -0.808500
     12 O11         -2.8530     0.5520     2.4470 o          1 FQV      -0.515800
     13 O13         -2.8520     0.5580    -0.0520 o          1 FQV      -0.515800
     14 S10         -2.4540     0.0080     1.1960 sy         1 FQV       1.225200
     15 SE5          4.0330     0.0070     1.1980 ss         1 FQV      -0.350000
     16 H1          -0.5410    -0.0260    -0.9380 ha         1 FQV       0.158000
     17 H2          -0.5430    -0.0070     3.3320 ha         1 FQV       0.158000
     18 H3           1.9230     0.0390    -0.9380 ha         1 FQV       0.177500
     19 H4           1.9230    -0.0040     3.3320 ha         1 FQV       0.177500
     20 H5           8.5690    -3.3620     0.3770 hc         1 FQV       0.068700
     21 H6           8.8760    -1.6420     0.6520 hc         1 FQV       0.068700
     22 H7           8.8530    -2.7650     2.0180 hc         1 FQV       0.068700
     23 H8           3.9830    -2.3660     2.0880 h1         1 FQV       0.071200
     24 H9           3.9830    -2.3700     0.3190 h1         1 FQV       0.071200
     25 H10         -2.4030    -2.0920     0.5360 hn         1 FQV       0.492467
     26 H11         -2.8350    -1.9600     2.1070 hn         1 FQV       0.492467
     27 H123        -3.9160    -1.6170     0.9310 hn         1 FQV       0.492467
@<TRIPOS>BOND
     1    15    10 1
     2    15     8 1
     3    10     2 1
     4     8     6 ar
     5     8     5 ar
     6     2     1 3
     7     6     4 ar
     8     5     3 ar
     9     1     9 1
    10     4     7 ar
    11     3     7 ar
    12     7    14 1
    13    11    14 1
    14    13    14 2
    15    14    12 2
    16     3    16 1
    17     4    17 1
    18     5    18 1
    19     6    19 1
    20     9    20 1
    21     9    21 1
    22     9    22 1
    23    10    23 1
    24    10    24 1
    25    11    25 1
    26    11    26 1
    27    27    11 1
@<TRIPOS>SUBSTRUCTURE
     1 FQV         1 TEMP              0 ****  ****    0 ROOT
