@<TRIPOS>MOLECULE
FQW
   44    47     1     0     0
SMALL
bcc


@<TRIPOS>ATOM
      1 CAI          0.0000     0.0000     0.0000 ca         1 FQW      -0.097000
      2 CAE          1.3830     0.0000     0.0000 ca         1 FQW      -0.094500
      3 CAC          2.0750     0.0000     1.1960 ca         1 FQW      -0.093000
      4 CAF          1.3830     0.0010     2.3930 ca         1 FQW      -0.094500
      5 CAJ          0.0010     0.0010     2.3940 ca         1 FQW      -0.097000
      6 CAR         -0.6900    -0.0010     1.1980 ca         1 FQW      -0.105300
      7 CAM         -2.1970    -0.0000     1.1980 c3         1 FQW       0.041900
      8 CAN         -2.7080    -1.4430     1.1970 c3         1 FQW       0.030900
      9 CAU         -4.2150    -1.4420     1.1980 cc         1 FQW      -0.040300
     10 CAY         -5.0520    -1.4430     0.0570 cc         1 FQW      -0.193600
     11 CAW         -4.8130    -1.4420    -1.3380 c          1 FQW       0.646100
     12 OAB         -3.6760    -1.4420    -1.7780 o          1 FQW      -0.606500
     13 NAP         -5.8790    -1.4430    -2.1700 ns         1 FQW      -0.005400
     14 CAS         -7.1440    -1.4440    -1.6640 cc         1 FQW      -0.048200
     15 NAA         -8.2060    -1.4450    -2.5320 nz         1 FQW       0.231400
     16 NAO         -7.3800    -1.4440    -0.3720 nd         1 FQW      -0.339100
     17 CAX         -6.3780    -1.4430     0.5170 cd         1 FQW      -0.167900
     18 NAQ         -6.3350    -1.4440     1.8830 na         1 FQW       0.481900
     19 CAV         -5.0170    -1.4490     2.2920 cd         1 FQW      -0.159300
     20 CAT         -4.5540    -1.4560     3.6950 ca         1 FQW      -0.063000
     21 CAK         -5.1450    -0.6070     4.6340 ca         1 FQW      -0.081500
     22 CAG         -4.7070    -0.6190     5.9420 ca         1 FQW      -0.087500
     23 CAD         -3.6860    -1.4700     6.3260 ca         1 FQW      -0.065000
     24 CAH         -3.0970    -2.3140     5.4010 ca         1 FQW      -0.087500
     25 CAL         -3.5270    -2.3150     4.0910 ca         1 FQW      -0.081500
     26 HAI         -0.5420    -0.0010    -0.9380 ha         1 FQW       0.106000
     27 HAE          1.9240     0.0000    -0.9380 ha         1 FQW       0.106000
     28 HAC          3.1580    -0.0000     1.1960 ha         1 FQW       0.108000
     29 HAF          1.9250     0.0020     3.3320 ha         1 FQW       0.106000
     30 HAJ         -0.5400     0.0010     3.3320 ha         1 FQW       0.106000
     31 HAM1        -2.5580     0.5100     2.0830 hc         1 FQW       0.019200
     32 HAM2        -2.5580     0.5110     0.3140 hc         1 FQW       0.019200
     33 HAN1        -2.3460    -1.9540     2.0810 hc         1 FQW       0.045200
     34 HAN2        -2.3470    -1.9530     0.3120 hc         1 FQW       0.045200
     35 HAP         -5.7380    -1.4440    -3.1610 hn         1 FQW       0.184500
     36 HAA1        -8.1670    -0.6280    -3.1080 hn         1 FQW       0.211467
     37 HAA2        -8.1640    -2.2620    -3.1100 hn         1 FQW       0.211467
     38 HAQ         -7.1320    -1.4470     2.4900 hn         1 FQW       0.130700
     39 HAK         -5.9440     0.0590     4.3350 ha         1 FQW       0.110000
     40 HAL         -3.0640    -2.9770     3.3690 ha         1 FQW       0.110000
     41 HAG         -5.1650     0.0390     6.6700 ha         1 FQW       0.116000
     42 HAD         -3.3460    -1.4740     7.3540 ha         1 FQW       0.115000
     43 HAH         -2.2990    -2.9790     5.7090 ha         1 FQW       0.116000
     44 HAA3        -9.0610    -1.4780    -2.0140 hn         1 FQW       0.211467
@<TRIPOS>BOND
     1     1     2 ar  
     2     1     6 ar  
     3     1    26 1   
     4     2     3 ar  
     5     2    27 1   
     6     3     4 ar  
     7     3    28 1   
     8     4     5 ar  
     9     4    29 1   
    10     5     6 ar  
    11     5    30 1   
    12     6     7 1   
    13     7     8 1   
    14     7    31 1   
    15     7    32 1   
    16     8     9 1   
    17     8    33 1   
    18     8    34 1   
    19     9    10 1   
    20     9    19 2   
    21    10    11 1   
    22    10    17 2   
    23    11    12 2   
    24    11    13 1   
    25    13    14 1   
    26    13    35 1   
    27    14    15 1   
    28    14    16 2   
    29    15    36 1   
    30    15    37 1   
    31    15    44 1   
    32    16    17 1   
    33    17    18 1   
    34    18    19 1   
    35    18    38 1   
    36    19    20 1   
    37    20    21 ar  
    38    20    25 ar  
    39    21    22 ar  
    40    21    39 1   
    41    22    23 ar  
    42    22    41 1   
    43    23    24 ar  
    44    23    42 1   
    45    24    25 ar  
    46    24    43 1   
    47    25    40 1   
@<TRIPOS>SUBSTRUCTURE
     1 FQW         1 TEMP              0 ****  ****    0 ROOT
