@<TRIPOS>MOLECULE
FQX
   20    22     1     0     0
SMALL
bcc


@<TRIPOS>ATOM
      1 OAA        -0.0950    0.0060   -0.0290 o         1 FQX     -0.539500
      2 CAJ         1.1390    0.0030    0.0160 c         1 FQX      0.639500
      3 CAK         1.8930   -0.0090    1.3420 c         1 FQX      0.639500
      4 OAB         1.2940   -0.0150    2.4240 o         1 FQX     -0.546500
      5 NAH         3.2780   -0.0120    1.3000 n         1 FQX     -0.461100
      6 CAN         4.0100   -0.0050    0.1060 ca        1 FQX      0.029600
      7 CAE         5.3890   -0.0090    0.1370 ca        1 FQX     -0.083000
      8 CAO         6.0770   -0.0020   -1.0990 ca        1 FQX     -0.204000
      9 NAP         7.4210   -0.0030   -1.4300 na        1 FQX      0.265200
     10 OAC         8.4580   -0.0090   -0.8550 o         1 FQX     -0.133000
     11 OAI         7.5000    0.0070   -2.8120 os        1 FQX      0.025300
     12 NAF         6.2980    0.0140   -3.3820 nc        1 FQX     -0.137500
     13 CAL         5.3750    0.0090   -2.3900 ca        1 FQX      0.000000
     14 CAD         3.9510    0.0130   -2.3870 ca        1 FQX     -0.171000
     15 CAM         3.2820    0.0060   -1.1790 ca        1 FQX      0.107600
     16 NAG         1.8850    0.0090   -1.1570 n         1 FQX     -0.465100
     17 HNAH        3.7810   -0.0190    2.1620 hn        1 FQX      0.345500
     18 HAE         5.9630   -0.0170    1.0760 ha        1 FQX      0.169000
     19 HAD         3.4240    0.0210   -3.3530 ha        1 FQX      0.171000
     20 HNAG        1.3980    0.0160   -2.0280 hn        1 FQX      0.346500
@<TRIPOS>BOND
     1    1    2 2
     2    2    3 1
     3    2   16 1
     4    3    4 2
     5    3    5 1
     6    5    6 1
     7    5   17 1
     8    6    7 ar
     9    6   15 ar
    10    7    8 ar
    11    7   18 1
    12    8    9 2
    13    8   13 ar
    14    9   10 1
    15    9   11 1
    16   11   12 1
    17   12   13 2
    18   13   14 ar
    19   14   15 ar
    20   14   19 1
    21   15   16 1
    22   16   20 1
@<TRIPOS>SUBSTRUCTURE
     1 FQX         1 TEMP              0 ****  ****    0 ROOT
