@<TRIPOS>MOLECULE
molecule
   35    36     1     0     0
SMALL
bcc


@<TRIPOS>ATOM
      1 C4           0.0000     0.0000     0.0000 ca         1 FQY      -0.035000
      2 C6           0.0000    -0.0060     2.3940 ca         1 FQY      -0.035000
      3 C5           1.3830     0.0000     0.0000 ca         1 FQY      -0.105500
      4 C7           1.3820    -0.0010     2.3950 ca         1 FQY      -0.105500
      5 C3          -0.6910    -0.0010     1.1970 ca         1 FQY      -0.338500
      6 C8           2.0730     0.0000     1.1980 ca         1 FQY       0.181900
      7 C13          5.6040     4.2880    -0.0490 c3         1 FQY      -0.084400
      8 C12          6.2140     3.6490     1.2010 c3         1 FQY      -0.077400
      9 C14          4.0910     4.0630    -0.0500 c3         1 FQY      -0.077400
     10 C11          5.9220     2.1480     1.2000 c3         1 FQY      -0.079900
     11 C15          3.7990     2.5610    -0.0500 c3         1 FQY      -0.079900
     12 C10          4.4080     1.9230     1.1990 c3         1 FQY       0.104400
     13 N16         -2.9500    -1.5730     1.1910 nz         1 FQY      -0.806500
     14 O1          -2.8520     0.5490     2.4470 o          1 FQY      -0.518800
     15 O17         -2.8510     0.5570    -0.0520 o          1 FQY      -0.518800
     16 S2          -2.4530     0.0070     1.1970 sy         1 FQY       1.227200
     17 SE9          4.0330    -0.0010     1.1990 ss         1 FQY      -0.399000
     18 H1          -0.5420     0.0020    -0.9380 ha         1 FQY       0.158000
     19 H2          -0.5420    -0.0070     3.3320 ha         1 FQY       0.158000
     20 H3           1.9250     0.0000    -0.9380 ha         1 FQY       0.177000
     21 H4           1.9240    -0.0030     3.3330 ha         1 FQY       0.177000
     22 H7           5.7790     4.1000     2.0840 hc         1 FQY       0.051950
     23 H8           7.2860     3.8070     1.1990 hc         1 FQY       0.051950
     24 H9           3.6600     4.5140     0.8370 hc         1 FQY       0.051950
     25 H10          3.6600     4.5140    -0.9360 hc         1 FQY       0.051950
     26 H11          6.3530     1.6980     0.3140 hc         1 FQY       0.053700
     27 H12          6.3520     1.6970     2.0860 hc         1 FQY       0.053700
     28 H13          2.7270     2.4030    -0.0480 hc         1 FQY       0.053700
     29 H14          4.2340     2.1100    -0.9330 hc         1 FQY       0.053700
     30 H15          3.9770     2.3790     2.0820 h1         1 FQY       0.072700
     31 H16         -2.6000    -2.0350     2.0070 hn         1 FQY       0.492133
     32 H17         -3.9500    -1.6080     1.1910 hn         1 FQY       0.492133
     33 H5           5.8100     5.3510    -0.0470 hc         1 FQY       0.053700
     34 H163        -2.6000    -2.0300     0.3720 hn         1 FQY       0.492133
     35 H6           6.0350     3.8330    -0.9330 hc         1 FQY       0.053700
@<TRIPOS>BOND
     1    10     8 1
     2    10    12 1
     3    17    12 1
     4    17     6 1
     5     8     7 1
     6    12    11 1
     7     6     3 ar
     8     6     4 ar
     9     3     1 ar
    10     7     9 1
    11     4     2 ar
    12    11     9 1
    13     1     5 ar
    14     2     5 ar
    15     5    16 1
    16    13    16 1
    17    15    16 2
    18    16    14 2
    19     1    18 1
    20     2    19 1
    21     3    20 1
    22     4    21 1
    23     7    33 1
    24     7    35 1
    25     8    22 1
    26     8    23 1
    27     9    24 1
    28     9    25 1
    29    10    26 1
    30    10    27 1
    31    11    28 1
    32    11    29 1
    33    12    30 1
    34    13    31 1
    35    13    32 1
    36    34    13 1
@<TRIPOS>SUBSTRUCTURE
     1 FQY         1 TEMP              0 ****  ****    0 ROOT
