@<TRIPOS>MOLECULE
FR0
   43    46     1     0     0
SMALL
bcc


@<TRIPOS>ATOM
      1 N1          0.1130    0.8520    0.6180 nc        1 FR0     -0.471100
      2 C2          1.5040    0.9170    0.6840 ca        1 FR0      0.051400
      3 C3          2.0290   -0.3120    1.2650 ca        1 FR0     -0.028200
      4 N4          0.9270   -1.1110    1.5920 na        1 FR0     -0.234300
      5 C5         -0.2010   -0.3810    1.1170 cd        1 FR0      0.332700
      6 C6          2.3970    1.9370    0.2890 ca        1 FR0     -0.044000
      7 C7          3.7480    1.7180    0.4720 ca        1 FR0     -0.120000
      8 C8          4.2450    0.5190    1.0340 ca        1 FR0     -0.042000
      9 C9          3.4080   -0.5080    1.4370 ca        1 FR0     -0.137000
     10 N10        -1.5830   -0.8450    1.2610 n4        1 FR0     -0.665000
     11 C11        -2.2720   -0.1390    2.4000 c3        1 FR0      0.192100
     12 C12        -3.7250   -0.4040    2.4370 cc        1 FR0     -0.204400
     13 S15        -4.8660    0.7900    2.2440 ss        1 FR0      0.219200
     14 C16        -6.1610   -0.2240    2.5490 cc        1 FR0     -0.235600
     15 C17        -5.7280   -1.5260    2.8080 cd        1 FR0     -0.083000
     16 C18        -4.3140   -1.6280    2.7450 cd        1 FR0     -0.125000
     17 C19        -7.5330    0.2140    2.5450 cc        1 FR0      0.529800
     18 N20        -8.5400   -0.3800    3.2030 nc        1 FR0     -0.667000
     19 C21        -9.7330    0.3300    2.9590 cd        1 FR0      0.326400
     20 S22        -9.4930    1.6920    1.9110 ss        1 FR0      0.555700
     21 C23        -7.9560    1.3920    1.7870 cd        1 FR0     -0.321400
     22 N26       -10.9630    0.0740    3.4360 nf        1 FR0     -0.425700
     23 C27       -11.3150   -0.9010    4.2570 c2        1 FR0      0.360100
     24 N28       -12.7440   -0.9780    4.6460 n4        1 FR0     -0.774100
     25 N29       -10.4100   -1.9310    4.8280 n4        1 FR0     -0.774100
     26 HN4         0.9650   -2.0890    1.7390 hn        1 FR0      0.321700
     27 H6          2.0160    2.8720   -0.1500 ha        1 FR0      0.174000
     28 H7          4.4710    2.4960    0.1700 ha        1 FR0      0.175000
     29 H8          5.3380    0.4020    1.1510 ha        1 FR0      0.175000
     30 H9          3.8070   -1.4360    1.8730 ha        1 FR0      0.168000
     31 H10        -1.6020   -1.8590    1.4160 hn        1 FR0      0.467300
     32 H111       -1.7810   -0.4890    3.3580 hx        1 FR0      0.137200
     33 H112       -2.0650    0.9700    2.2880 hx        1 FR0      0.137200
     34 H17        -6.3800   -2.3760    3.0270 ha        1 FR0      0.175000
     35 H18        -3.7750   -2.5600    2.9400 ha        1 FR0      0.182000
     36 H23        -7.2190    1.9630    1.1980 h4        1 FR0      0.244000
     37 H281      -12.8480   -0.8670    5.6650 hn        1 FR0      0.493467
     38 H282      -13.1550   -1.8730    4.3410 hn        1 FR0      0.493467
     39 H291       -9.9770   -2.4610    4.0530 hn        1 FR0      0.493467
     40 H292       -9.6570   -1.4550    5.3560 hn        1 FR0      0.493467
     41 H102       -2.0720   -0.6400    0.3760 hn        1 FR0      0.467300
     42 H283      -13.2670   -0.2090    4.1830 hn        1 FR0      0.493467
     43 H293      -10.8860   -2.5890    5.4540 hn        1 FR0      0.493467
@<TRIPOS>BOND
     1    1    2 1   
     2    1    5 2   
     3    2    3 ar  
     4    2    6 ar  
     5    3    4 1   
     6    3    9 ar  
     7    4    5 1   
     8    4   26 1   
     9    5   10 1   
    10    6    7 ar  
    11    6   27 1   
    12    7    8 ar  
    13    7   28 1   
    14    8    9 ar  
    15    8   29 1   
    16    9   30 1   
    17   10   11 1   
    18   10   31 1   
    19   10   41 1   
    20   11   12 1   
    21   11   32 1   
    22   11   33 1   
    23   12   13 1   
    24   12   16 2   
    25   13   14 1   
    26   14   15 2   
    27   14   17 1   
    28   15   16 1   
    29   15   34 1   
    30   16   35 1   
    31   17   18 1   
    32   17   21 2   
    33   18   19 2   
    34   19   20 1   
    35   19   22 1   
    36   20   21 1   
    37   21   36 1   
    38   22   23 2   
    39   23   24 1   
    40   23   25 1   
    41   24   37 1   
    42   24   38 1   
    43   24   42 1   
    44   25   39 1   
    45   25   40 1   
    46   25   43 1   
@<TRIPOS>SUBSTRUCTURE
     1 FR0         1 TEMP              0 ****  ****    0 ROOT
