@<TRIPOS>MOLECULE
molecule
   72    73     1     0     0
SMALL
bcc


@<TRIPOS>ATOM
      1 C1           0.0000     0.0000     0.0000 ca         1 FR1      -0.102000
      2 C2           1.3790     0.0000     0.0000 ca         1 FR1      -0.104500
      3 C3           2.0750     0.0000     1.2090 ca         1 FR1      -0.100600
      4 C4           3.5560    -0.0040     1.2100 c          1 FR1       0.644700
      5 N5           4.2300    -0.0110     0.0430 ns         1 FR1      -0.539900
      6 O6           4.1630    -0.0040     2.2620 o          1 FR1      -0.640100
      7 C7           1.3780     0.0060     2.4170 ca         1 FR1      -0.104500
      8 C8          -0.0010     0.0120     2.4160 ca         1 FR1      -0.102000
      9 C9          -0.6980     0.0110     1.2080 ca         1 FR1      -0.149600
     10 C10         -2.1780     0.0180     1.2070 c          1 FR1       0.679700
     11 O11         -2.7860     0.0230     2.2600 o          1 FR1      -0.629100
     12 N12         -2.8520     0.0170     0.0400 ns         1 FR1      -0.572900
     13 C13         -4.3170     0.0240     0.0390 c3         1 FR1       0.059700
     14 C14         -4.8210     1.4630     0.1620 c3         1 FR1      -0.077700
     15 C15         -4.2790     2.2930    -1.0040 c3         1 FR1      -0.099600
     16 C16         -6.3500     1.4730     0.1260 c3         1 FR1      -0.099600
     17 C17         -4.8210    -0.5780    -1.2470 c          1 FR1       0.688100
     18 O18         -4.1890    -0.4360    -2.2720 o          1 FR1      -0.596100
     19 N19         -5.9750    -1.2750    -1.2570 n          1 FR1      -0.479800
     20 C20         -6.6190    -1.8480    -2.4480 c3         1 FR1       0.045700
     21 C21         -7.8940    -2.5770    -1.9740 c3         1 FR1      -0.093400
     22 C22         -7.6040    -2.8480    -0.4740 c3         1 FR1      -0.095400
     23 C23         -6.8040    -1.5820    -0.0780 c3         1 FR1       0.089000
     24 C24         -6.9830    -0.7570    -3.4230 c          1 FR1       0.654100
     25 O25         -6.7260     0.3990    -3.1610 o          1 FR1      -0.583100
     26 N26         -7.5960    -1.0670    -4.5820 ns         1 FR1      -0.583900
     27 C27         -7.9500    -0.0060    -5.5290 c3         1 FR1       0.037700
     28 C28         -6.7460     0.3080    -6.4180 c3         1 FR1      -0.083700
     29 C29         -6.4190    -0.9100    -7.2830 c3         1 FR1      -0.101100
     30 C30         -7.0740     1.5000    -7.3190 c3         1 FR1      -0.101100
     31 C31         -9.1020    -0.4630    -6.3870 c          1 FR1       0.522100
     32 O32         -9.2820    -1.6420    -6.5780 o          1 FR1      -0.460100
     33 C33        -10.0280     0.5510    -7.0060 c3         1 FR1       0.531900
     34 F34        -11.3480     0.2600    -6.6450 f          1 FR1      -0.210967
     35 F35         -9.6920     1.8300    -6.5500 f          1 FR1      -0.210967
     36 F36         -9.9050     0.5050    -8.3990 f          1 FR1      -0.210967
     37 C37          5.6950    -0.0160     0.0430 c3         1 FR1      -0.005000
     38 C38          6.1980    -0.0230    -1.3780 c          1 FR1       0.883600
     39 O39          5.4130    -0.0230    -2.2970 o          1 FR1      -0.844800
     40 O40          7.5180    -0.0280    -1.6230 o          1 FR1      -0.844800
     41 HC1         -0.5410    -0.0000    -0.9380 ha         1 FR1       0.138000
     42 HC2          1.9210    -0.0090    -0.9380 ha         1 FR1       0.156500
     43 HN5          3.7300     0.0200    -0.8240 hn         1 FR1       0.332500
     44 HC7          1.9190     0.0070     3.3550 ha         1 FR1       0.156500
     45 HC8         -0.5430     0.0190     3.3540 ha         1 FR1       0.138000
     46 H12         -2.3520    -0.0400    -0.8250 hn         1 FR1       0.339500
     47 H13         -4.6810    -0.5590     0.8770 h1         1 FR1       0.078700
     48 H14         -4.4790     1.8880     1.0980 hc         1 FR1       0.073700
     49 H151        -3.2070     2.1550    -1.0780 hc         1 FR1       0.042033
     50 H152        -4.7490     1.9720    -1.9250 hc         1 FR1       0.042033
     51 H153        -4.4970     3.3410    -0.8330 hc         1 FR1       0.042033
     52 H161        -6.7070     2.4900     0.2380 hc         1 FR1       0.042033
     53 H162        -6.7350     0.8650     0.9350 hc         1 FR1       0.042033
     54 H163        -6.6920     1.0730    -0.8210 hc         1 FR1       0.042033
     55 H20         -5.9480    -2.5570    -2.9190 h1         1 FR1       0.082700
     56 H211        -8.0230    -3.5080    -2.5120 hc         1 FR1       0.058200
     57 H212        -8.7620    -1.9390    -2.0860 hc         1 FR1       0.058200
     58 H221        -7.0000    -3.7400    -0.3530 hc         1 FR1       0.060200
     59 H222        -8.5260    -2.9150     0.0910 hc         1 FR1       0.060200
     60 H231        -7.4800    -0.7610     0.1300 h1         1 FR1       0.059200
     61 H232        -6.1760    -1.7880     0.7800 h1         1 FR1       0.059200
     62 H26         -7.8460    -2.0160    -4.7780 hn         1 FR1       0.328500
     63 H27         -8.2380     0.8840    -4.9820 h1         1 FR1       0.107700
     64 H28         -5.8920     0.5500    -5.7970 hc         1 FR1       0.097700
     65 H291        -5.4670    -0.7570    -7.7780 hc         1 FR1       0.043033
     66 H292        -6.3630    -1.7930    -6.6580 hc         1 FR1       0.043033
     67 H293        -7.1950    -1.0440    -8.0270 hc         1 FR1       0.043033
     68 H301        -7.5500     2.2760    -6.7320 hc         1 FR1       0.043033
     69 H302        -6.1600     1.8860    -7.7540 hc         1 FR1       0.043033
     70 H303        -7.7440     1.1820    -8.1080 hc         1 FR1       0.043033
     71 H371         6.0590     0.8690     0.5510 h1         1 FR1       0.048700
     72 H372         6.0530    -0.9000     0.5570 h1         1 FR1       0.048700
@<TRIPOS>BOND
     1     1     2 ar
     2     1     9 ar
     3     1    41 1
     4     2     3 ar
     5     2    42 1
     6     3     4 1
     7     3     7 ar
     8     4     5 1
     9     4     6 2
    10     5    37 1
    11     5    43 1
    12     7     8 ar
    13     7    44 1
    14     8     9 ar
    15     8    45 1
    16     9    10 1
    17    10    11 2
    18    10    12 1
    19    12    13 1
    20    12    46 1
    21    13    14 1
    22    13    17 1
    23    13    47 1
    24    14    15 1
    25    14    16 1
    26    14    48 1
    27    15    49 1
    28    15    50 1
    29    15    51 1
    30    16    52 1
    31    16    53 1
    32    16    54 1
    33    17    18 2
    34    17    19 1
    35    19    20 1
    36    19    23 1
    37    20    21 1
    38    20    24 1
    39    20    55 1
    40    21    22 1
    41    21    56 1
    42    21    57 1
    43    22    23 1
    44    22    58 1
    45    22    59 1
    46    23    60 1
    47    23    61 1
    48    24    25 2
    49    24    26 1
    50    26    27 1
    51    26    62 1
    52    27    28 1
    53    27    31 1
    54    27    63 1
    55    28    29 1
    56    28    30 1
    57    28    64 1
    58    29    65 1
    59    29    66 1
    60    29    67 1
    61    30    68 1
    62    30    69 1
    63    30    70 1
    64    31    32 2
    65    31    33 1
    66    33    34 1
    67    33    35 1
    68    33    36 1
    69    37    38 1
    70    37    71 1
    71    37    72 1
    72    38    39 1
    73    38    40 1
@<TRIPOS>SUBSTRUCTURE
     1 FR1         1 TEMP              0 ****  ****    0 ROOT
