@<TRIPOS>MOLECULE
FR2
   37    38     1     0     0
SMALL
bcc


@<TRIPOS>ATOM
      1 C1           0.0000     0.0000     0.0000 cc         1 FR2      -0.265600
      2 N2           1.3540     0.0000     0.0000 na         1 FR2       0.340100
      3 C3           1.7660     0.0000     1.2930 cc         1 FR2       0.305400
      4 N4           0.7230     0.0040     2.0710 nd         1 FR2      -0.635000
      5 C5          -0.3960    -0.0000     1.3040 cd         1 FR2       0.114800
      6 C8          -1.7870     0.0000     1.7920 c          1 FR2       0.300600
      7 O9          -2.7090    -0.0010     1.0000 o          1 FR2      -0.458100
      8 N10         -2.0360    -0.0000     3.1170 nz         1 FR2       0.213600
      9 C13          2.2170     0.0000    -1.1820 c3         1 FR2      -0.092000
     10 C14          3.1000     1.2500    -1.1690 c3         1 FR2       0.206400
     11 O15          3.9060     1.2510     0.0100 oh         1 FR2      -0.606800
     12 C18          3.1010    -1.2490    -1.1680 c3         1 FR2      -0.039400
     13 C19          4.0040    -1.2480    -2.4030 c3         1 FR2       0.037900
     14 C22          4.8740    -2.4770    -2.3900 ca         1 FR2      -0.112300
     15 C25          4.4380    -3.6400    -2.9950 ca         1 FR2      -0.096000
     16 C26          5.2350    -4.7680    -2.9820 ca         1 FR2      -0.091500
     17 C27          6.4710    -4.7330    -2.3660 ca         1 FR2      -0.088000
     18 C28          6.9090    -3.5700    -1.7620 ca         1 FR2      -0.091500
     19 C29          6.1120    -2.4410    -1.7780 ca         1 FR2      -0.096000
     20 H1          -0.6450    -0.0010    -0.8700 h4         1 FR2       0.176000
     21 H3           2.7980     0.0010     1.6240 h5         1 FR2       0.065100
     22 H101        -3.0250    -0.0020     3.2710 hn         1 FR2       0.246133
     23 H102        -1.6350     0.8170     3.5320 hn         1 FR2       0.246133
     24 H13          1.6060    -0.0010    -2.0770 h1         1 FR2       0.064700
     25 H141         3.7400     1.2500    -2.0440 h1         1 FR2       0.015200
     26 H142         2.4740     2.1350    -1.1800 h1         1 FR2       0.015200
     27 HO           4.3900     2.0580     0.0600 ho         1 FR2       0.419000
     28 H181         3.7120    -1.2480    -0.2740 hc         1 FR2       0.038200
     29 H182         2.4760    -2.1330    -1.1780 hc         1 FR2       0.038200
     30 H191         4.6290    -0.3630    -2.3930 hc         1 FR2       0.024200
     31 H192         3.3920    -1.2480    -3.2970 hc         1 FR2       0.024200
     32 H25          3.4680    -3.6680    -3.4790 ha         1 FR2       0.103500
     33 H26          4.8920    -5.6800    -3.4560 ha         1 FR2       0.109000
     34 H27          7.0960    -5.6180    -2.3550 ha         1 FR2       0.110000
     35 H28          7.8790    -3.5410    -1.2800 ha         1 FR2       0.109000
     36 H29          6.4560    -1.5290    -1.3050 ha         1 FR2       0.103500
     37 H103        -1.6180    -0.8090     3.5340 hn         1 FR2       0.246133
@<TRIPOS>BOND
     1     1     2 1   
     2     1     5 2   
     3     1    20 1   
     4     2     3 1   
     5     2     9 1   
     6     3     4 2   
     7     3    21 1   
     8     4     5 1   
     9     5     6 1   
    10     6     7 2   
    11     6     8 1   
    12     8    22 1   
    13     8    23 1   
    14     8    37 1   
    15     9    10 1   
    16     9    12 1   
    17     9    24 1   
    18    10    11 1   
    19    10    25 1   
    20    10    26 1   
    21    11    27 1   
    22    12    13 1   
    23    12    28 1   
    24    12    29 1   
    25    13    14 1   
    26    13    30 1   
    27    13    31 1   
    28    14    15 ar  
    29    14    19 ar  
    30    15    16 ar  
    31    15    32 1   
    32    16    17 ar  
    33    16    33 1   
    34    17    18 ar  
    35    17    34 1   
    36    18    19 ar  
    37    18    35 1   
    38    19    36 1   
@<TRIPOS>SUBSTRUCTURE
     1 FR2         1 TEMP              0 ****  ****    0 ROOT
