@<TRIPOS>MOLECULE
FR3
   43    45     1     0     0
SMALL
bcc


@<TRIPOS>ATOM
      1 C1           0.0000     0.0000     0.0000 cc         1 FR3      -0.265600
      2 N2           1.3530     0.0000     0.0000 na         1 FR3       0.341100
      3 C3           1.7660     0.0000     1.2930 cc         1 FR3       0.304400
      4 N4           0.7230     0.0030     2.0720 nd         1 FR3      -0.635000
      5 C5          -0.3970    -0.0010     1.3050 cd         1 FR3       0.112800
      6 C8          -1.7870    -0.0010     1.7930 c          1 FR3       0.301600
      7 O9          -2.7090    -0.0000     1.0030 o          1 FR3      -0.459100
      8 N10         -2.0350    -0.0020     3.1180 nz         1 FR3       0.213600
      9 C13          2.2170     0.0010    -1.1830 c3         1 FR3      -0.093000
     10 C14          3.1000     1.2500    -1.1690 c3         1 FR3       0.206400
     11 O15          3.9070     1.2500     0.0100 oh         1 FR3      -0.600800
     12 C18          3.1000    -1.2480    -1.1700 c3         1 FR3      -0.039400
     13 C19          4.0030    -1.2460    -2.4060 c3         1 FR3       0.035900
     14 C22          4.8730    -2.4760    -2.3930 ca         1 FR3      -0.098300
     15 C25          4.4450    -3.6230    -2.9890 ca         1 FR3      -0.087000
     16 C26          5.2360    -4.7710    -2.9880 ca         1 FR3      -0.102000
     17 C27          6.4590    -4.7770    -2.3910 ca         1 FR3      -0.070000
     18 C28          6.9340    -3.6120    -1.7660 ca         1 FR3      -0.031000
     19 C29          6.1320    -2.4440    -1.7710 ca         1 FR3       0.009000
     20 C2           8.1920    -3.5820    -1.1400 ca         1 FR3      -0.066000
     21 C4           6.6050    -1.2810    -1.1420 ca         1 FR3      -0.141000
     22 C6           8.6190    -2.4350    -0.5450 ca         1 FR3      -0.129000
     23 C7           7.8280    -1.2880    -0.5460 ca         1 FR3      -0.103000
     24 H1          -0.6450    -0.0010    -0.8700 h4         1 FR3       0.176000
     25 H3           2.7980     0.0010     1.6240 h5         1 FR3       0.066100
     26 H101        -3.0240     0.0010     3.2730 hn         1 FR3       0.245467
     27 H102        -1.6300     0.8130     3.5340 hn         1 FR3       0.245467
     28 H13          1.6050     0.0010    -2.0770 h1         1 FR3       0.063700
     29 H141         2.4740     2.1340    -1.1790 h1         1 FR3       0.014700
     30 H142         3.7390     1.2510    -2.0440 h1         1 FR3       0.014700
     31 H15          4.2610     2.1130     0.1490 ho         1 FR3       0.415000
     32 H181         2.4750    -2.1330    -1.1800 hc         1 FR3       0.040200
     33 H182         3.7120    -1.2480    -0.2760 hc         1 FR3       0.040200
     34 H191         4.6280    -0.3620    -2.3960 hc         1 FR3       0.026200
     35 H192         3.3910    -1.2460    -3.3000 hc         1 FR3       0.026200
     36 H25          3.4750    -3.6440    -3.4710 ha         1 FR3       0.101000
     37 H26          4.8720    -5.6700    -3.4690 ha         1 FR3       0.108000
     38 H27          7.0640    -5.6770    -2.3970 ha         1 FR3       0.113000
     39 H2           8.9090    -4.3900    -1.0650 ha         1 FR3       0.113000
     40 H4           6.6650    -0.2400    -1.4370 ha         1 FR3       0.129000
     41 H6           9.5880    -2.3940    -0.0610 ha         1 FR3       0.108000
     42 H7           8.2690    -0.4600    -0.0040 ha         1 FR3       0.104000
     43 H103        -1.6260    -0.8150     3.5340 hn         1 FR3       0.245467
@<TRIPOS>BOND
     1     1     2 1   
     2     1     5 2   
     3     1    24 1   
     4     2     3 1   
     5     2     9 1   
     6     3     4 2   
     7     3    25 1   
     8     4     5 1   
     9     5     6 1   
    10     6     7 2   
    11     6     8 1   
    12     8    26 1   
    13     8    27 1   
    14     8    43 1   
    15     9    10 1   
    16     9    12 1   
    17     9    28 1   
    18    10    11 1   
    19    10    29 1   
    20    10    30 1   
    21    11    31 1   
    22    12    13 1   
    23    12    32 1   
    24    12    33 1   
    25    13    14 1   
    26    13    34 1   
    27    13    35 1   
    28    14    15 ar  
    29    14    19 ar  
    30    15    16 ar  
    31    15    36 1   
    32    16    17 ar  
    33    16    37 1   
    34    17    18 ar  
    35    17    38 1   
    36    18    19 ar  
    37    18    20 ar  
    38    19    21 ar  
    39    20    22 ar  
    40    20    39 1   
    41    21    23 ar  
    42    21    40 1   
    43    22    23 ar  
    44    22    41 1   
    45    23    42 1   
@<TRIPOS>SUBSTRUCTURE
     1 FR3         1 TEMP              0 ****  ****    0 ROOT
