@<TRIPOS>MOLECULE
molecule
   61    64     1     0     0
SMALL
bcc


@<TRIPOS>ATOM
      1 C1           0.0000     0.0000     0.0000 cc         1 FR4      -0.115600
      2 N2           1.3540     0.0000     0.0000 na         1 FR4      -0.158900
      3 C3           1.7670     0.0000     1.2940 cc         1 FR4       0.482400
      4 N4           0.7240     0.0050     2.0720 nd         1 FR4      -0.721000
      5 C5          -0.3960     0.0000     1.3050 cd         1 FR4       0.159800
      6 C8          -1.7860     0.0010     1.7930 c          1 FR4       0.452600
      7 O9          -2.7090     0.0020     1.0000 o          1 FR4      -0.441100
      8 N10         -2.0350     0.0010     3.1170 nz         1 FR4      -0.669400
      9 C13          2.2180     0.0010    -1.1830 c3         1 FR4       0.042000
     10 C14          3.1010     1.2500    -1.1690 c3         1 FR4       0.122400
     11 O15          3.9090     1.2500     0.0100 oh         1 FR4      -0.622800
     12 C18          3.1010    -1.2490    -1.1690 c3         1 FR4      -0.122400
     13 C19          4.0030    -1.2480    -2.4040 c3         1 FR4       0.060300
     14 N22          4.8490    -2.4450    -2.3910 na         1 FR4      -0.084400
     15 C27          4.5190    -3.6470    -2.9580 cc         1 FR4      -0.119100
     16 C28          5.5120    -4.5290    -2.7690 cd         1 FR4      -0.170200
     17 C29          6.5640    -3.8360    -2.0200 ca         1 FR4      -0.117800
     18 C30          6.0960    -2.5260    -1.8140 ca         1 FR4      -0.020200
     19 C31          7.8170    -4.2150    -1.5340 ca         1 FR4      -0.055000
     20 C32          8.5830    -3.3130    -0.8530 ca         1 FR4      -0.150000
     21 C33          8.1250    -2.0140    -0.6410 ca         1 FR4       0.091600
     22 C34          6.8860    -1.6200    -1.1150 ca         1 FR4      -0.198000
     23 N1           8.9230    -1.1010     0.0580 ns         1 FR4      -0.484100
     24 C2          10.2650    -1.1550    -0.0550 c          1 FR4       0.655100
     25 O1          10.7770    -1.9280    -0.8370 o          1 FR4      -0.581100
     26 C4          11.1290    -0.2560     0.7900 c3         1 FR4      -0.153400
     27 C6          12.6030    -0.5160     0.4690 c3         1 FR4      -0.019100
     28 C7          13.9010    -0.0420     2.5560 ca         1 FR4      -0.125000
     29 C11         13.4670     0.3840     1.3150 ca         1 FR4      -0.094300
     30 C9          13.8300     1.6320     0.8470 ca         1 FR4      -0.125000
     31 C12         14.6200     2.4590     1.6240 ca         1 FR4      -0.125000
     32 C10         15.0530     2.0340     2.8660 ca         1 FR4      -0.126000
     33 C15         14.6940     0.7840     3.3310 ca         1 FR4      -0.125000
     34 H1          -0.6450    -0.0020    -0.8700 h4         1 FR4       0.209000
     35 H3           2.7990     0.0010     1.6250 h5         1 FR4       0.113100
     36 H101        -1.6330     0.8170     3.5330 hn         1 FR4       0.480800
     37 H102        -3.0240     0.0010     3.2710 hn         1 FR4       0.480800
     38 H13          1.6060     0.0010    -2.0770 h1         1 FR4       0.091700
     39 H141         3.7400     1.2490    -2.0440 h1         1 FR4       0.053200
     40 H142         2.4760     2.1340    -1.1790 h1         1 FR4       0.053200
     41 H15          4.3080     2.0970     0.1180 ho         1 FR4       0.429000
     42 H181         2.4760    -2.1330    -1.1790 hc         1 FR4       0.076700
     43 H182         3.7130    -1.2490    -0.2750 hc         1 FR4       0.076700
     44 H191         3.3910    -1.2480    -3.2980 h1         1 FR4       0.062200
     45 H192         4.6280    -0.3630    -2.3940 h1         1 FR4       0.062200
     46 H27          3.5940    -3.8550    -3.4820 h4         1 FR4       0.163000
     47 H28          5.5330    -5.5580    -3.1060 ha         1 FR4       0.162000
     48 H31          8.1800    -5.2230    -1.6950 ha         1 FR4       0.143000
     49 H32          9.5550    -3.6080    -0.4770 ha         1 FR4       0.165000
     50 H34          6.5360    -0.6090    -0.9470 ha         1 FR4       0.120000
     51 HN1          8.4980    -0.4230     0.6590 hn         1 FR4       0.319500
     52 H41         10.8910     0.7790     0.5760 hc         1 FR4       0.064200
     53 H42         10.9460    -0.4590     1.8380 hc         1 FR4       0.064200
     54 H61         12.8420    -1.5510     0.6830 hc         1 FR4       0.067200
     55 H62         12.7870    -0.3120    -0.5790 hc         1 FR4       0.067200
     56 H9          13.4910     1.9650    -0.1260 ha         1 FR4       0.130000
     57 H12         14.9030     3.4380     1.2570 ha         1 FR4       0.132000
     58 H10         15.6730     2.6810     3.4740 ha         1 FR4       0.132000
     59 H2          15.0340     0.4500     4.3040 ha         1 FR4       0.132000
     60 H103        -1.6360    -0.8180     3.5320 hn         1 FR4       0.480800
     61 H7          13.6200    -1.0220     2.9220 ha         1 FR4       0.130000
@<TRIPOS>BOND
     1     1     2 1
     2     1     5 2
     3     1    34 1
     4     2     3 1
     5     2     9 1
     6     3     4 2
     7     3    35 1
     8     4     5 1
     9     5     6 1
    10     6     7 2
    11     6     8 1
    12     8    36 1
    13     8    37 1
    14     9    10 1
    15     9    12 1
    16     9    38 1
    17    10    11 1
    18    10    39 1
    19    10    40 1
    20    11    41 1
    21    12    13 1
    22    12    42 1
    23    12    43 1
    24    13    14 1
    25    13    44 1
    26    13    45 1
    27    14    15 1
    28    14    18 1
    29    15    16 2
    30    15    46 1
    31    16    17 1
    32    16    47 1
    33    17    18 ar
    34    17    19 ar
    35    18    22 ar
    36    19    20 ar
    37    19    48 1
    38    20    21 ar
    39    20    49 1
    40    21    22 ar
    41    21    23 1
    42    22    50 1
    43    23    24 1
    44    23    51 1
    45    24    25 2
    46    24    26 1
    47    26    27 1
    48    26    52 1
    49    26    53 1
    50    27    29 1
    51    27    54 1
    52    27    55 1
    53    28    29 ar
    54    28    33 ar
    55    28    61 1
    56    29    30 ar
    57    30    31 ar
    58    30    56 1
    59    31    32 ar
    60    31    57 1
    61    32    33 ar
    62    32    58 1
    63    33    59 1
    64    60     8 1
@<TRIPOS>SUBSTRUCTURE
     1 FR4         1 TEMP              0 ****  ****    0 ROOT
