@<TRIPOS>MOLECULE
FR4
   61    64     1     0     0
SMALL
bcc


@<TRIPOS>ATOM
      1 C1           0.0000     0.0000     0.0000 cc         1 FR4      -0.263600
      2 N2           1.3540     0.0000     0.0000 na         1 FR4       0.333100
      3 C3           1.7670     0.0000     1.2940 cc         1 FR4       0.304400
      4 N4           0.7240     0.0050     2.0720 nd         1 FR4      -0.631000
      5 C5          -0.3960     0.0000     1.3050 cd         1 FR4       0.116800
      6 C8          -1.7860     0.0010     1.7930 c          1 FR4       0.299600
      7 O9          -2.7090     0.0020     1.0000 o          1 FR4      -0.456100
      8 N10         -2.0350     0.0010     3.1170 nz         1 FR4       0.215600
      9 C13          2.2180     0.0010    -1.1830 c3         1 FR4      -0.085000
     10 C14          3.1010     1.2500    -1.1690 c3         1 FR4       0.205400
     11 O15          3.9090     1.2500     0.0100 oh         1 FR4      -0.606800
     12 C18          3.1010    -1.2490    -1.1690 c3         1 FR4      -0.066400
     13 C19          4.0030    -1.2480    -2.4040 c3         1 FR4      -0.030700
     14 N22          4.8490    -2.4450    -2.3910 na         1 FR4       0.371600
     15 C27          4.5190    -3.6470    -2.9580 cc         1 FR4      -0.271100
     16 C28          5.5120    -4.5290    -2.7690 cd         1 FR4      -0.127200
     17 C29          6.5640    -3.8360    -2.0200 ca         1 FR4      -0.115800
     18 C30          6.0960    -2.5260    -1.8140 ca         1 FR4      -0.188200
     19 C31          7.8170    -4.2150    -1.5340 ca         1 FR4      -0.013000
     20 C32          8.5830    -3.3130    -0.8530 ca         1 FR4      -0.129000
     21 C33          8.1250    -2.0140    -0.6410 ca         1 FR4      -0.051400
     22 C34          6.8860    -1.6200    -1.1150 ca         1 FR4      -0.162000
     23 N1           8.9230    -1.1010     0.0580 ns         1 FR4      -0.047100
     24 C2          10.2650    -1.1550    -0.0550 c          1 FR4       0.558100
     25 O1          10.7770    -1.9280    -0.8370 o          1 FR4      -0.618100
     26 C4          11.1290    -0.2560     0.7900 c3         1 FR4      -0.096400
     27 C6          12.6030    -0.5160     0.4690 c3         1 FR4       0.045900
     28 C7          13.9010    -0.0420     2.5560 ca         1 FR4      -0.098500
     29 C11         13.4670     0.3840     1.3150 ca         1 FR4      -0.101300
     30 C9          13.8300     1.6320     0.8470 ca         1 FR4      -0.098500
     31 C12         14.6200     2.4590     1.6240 ca         1 FR4      -0.097500
     32 C10         15.0530     2.0340     2.8660 ca         1 FR4      -0.100000
     33 C15         14.6940     0.7840     3.3310 ca         1 FR4      -0.097500
     34 H1          -0.6450    -0.0020    -0.8700 h4         1 FR4       0.177000
     35 H3           2.7990     0.0010     1.6250 h5         1 FR4       0.065100
     36 H101        -1.6330     0.8170     3.5330 hn         1 FR4       0.246467
     37 H102        -3.0240     0.0010     3.2710 hn         1 FR4       0.246467
     38 H13          1.6060     0.0010    -2.0770 h1         1 FR4       0.065700
     39 H141         3.7400     1.2490    -2.0440 h1         1 FR4       0.016200
     40 H142         2.4760     2.1340    -1.1790 h1         1 FR4       0.016200
     41 H15          4.3080     2.0970     0.1180 ho         1 FR4       0.419000
     42 H181         2.4760    -2.1330    -1.1790 hc         1 FR4       0.045200
     43 H182         3.7130    -1.2490    -0.2750 hc         1 FR4       0.045200
     44 H191         3.3910    -1.2480    -3.2980 h1         1 FR4       0.037700
     45 H192         4.6280    -0.3630    -2.3940 h1         1 FR4       0.037700
     46 H27          3.5940    -3.8550    -3.4820 h4         1 FR4       0.139000
     47 H28          5.5330    -5.5580    -3.1060 ha         1 FR4       0.134000
     48 H31          8.1800    -5.2230    -1.6950 ha         1 FR4       0.109000
     49 H32          9.5550    -3.6080    -0.4770 ha         1 FR4       0.144000
     50 H34          6.5360    -0.6090    -0.9470 ha         1 FR4       0.099000
     51 HN1          8.4980    -0.4230     0.6590 hn         1 FR4       0.162500
     52 H41         10.8910     0.7790     0.5760 hc         1 FR4       0.029700
     53 H42         10.9460    -0.4590     1.8380 hc         1 FR4       0.029700
     54 H61         12.8420    -1.5510     0.6830 hc         1 FR4       0.035200
     55 H62         12.7870    -0.3120    -0.5790 hc         1 FR4       0.035200
     56 H9          13.4910     1.9650    -0.1260 ha         1 FR4       0.105000
     57 H12         14.9030     3.4380     1.2570 ha         1 FR4       0.104000
     58 H10         15.6730     2.6810     3.4740 ha         1 FR4       0.104000
     59 H2          15.0340     0.4500     4.3040 ha         1 FR4       0.104000
     60 H103        -1.6360    -0.8180     3.5320 hn         1 FR4       0.246467
     61 H7          13.6200    -1.0220     2.9220 ha         1 FR4       0.105000
@<TRIPOS>BOND
     1     1     2 1   
     2     1     5 2   
     3     1    34 1   
     4     2     3 1   
     5     2     9 1   
     6     3     4 2   
     7     3    35 1   
     8     4     5 1   
     9     5     6 1   
    10     6     7 2   
    11     6     8 1   
    12     8    36 1   
    13     8    37 1   
    14     8    60 1   
    15     9    10 1   
    16     9    12 1   
    17     9    38 1   
    18    10    11 1   
    19    10    39 1   
    20    10    40 1   
    21    11    41 1   
    22    12    13 1   
    23    12    42 1   
    24    12    43 1   
    25    13    14 1   
    26    13    44 1   
    27    13    45 1   
    28    14    15 1   
    29    14    18 1   
    30    15    16 2   
    31    15    46 1   
    32    16    17 1   
    33    16    47 1   
    34    17    18 ar  
    35    17    19 ar  
    36    18    22 ar  
    37    19    20 ar  
    38    19    48 1   
    39    20    21 ar  
    40    20    49 1   
    41    21    22 ar  
    42    21    23 1   
    43    22    50 1   
    44    23    24 1   
    45    23    51 1   
    46    24    25 2   
    47    24    26 1   
    48    26    27 1   
    49    26    52 1   
    50    26    53 1   
    51    27    29 1   
    52    27    54 1   
    53    27    55 1   
    54    28    29 ar  
    55    28    33 ar  
    56    28    61 1   
    57    29    30 ar  
    58    30    31 ar  
    59    30    56 1   
    60    31    32 ar  
    61    31    57 1   
    62    32    33 ar  
    63    32    58 1   
    64    33    59 1   
@<TRIPOS>SUBSTRUCTURE
     1 FR4         1 TEMP              0 ****  ****    0 ROOT
