@<TRIPOS>MOLECULE
FR5
   67    71     1     0     0
SMALL
bcc


@<TRIPOS>ATOM
      1 C1           0.0000     0.0000     0.0000 cc         1 FR5      -0.264600
      2 N2           1.3540     0.0000     0.0000 na         1 FR5       0.325100
      3 C3           1.7680     0.0000     1.2940 cc         1 FR5       0.303400
      4 N4           0.7250    -0.0060     2.0730 nd         1 FR5      -0.614000
      5 C5          -0.3960    -0.0110     1.3060 cd         1 FR5       0.113800
      6 C8          -1.7850    -0.0180     1.7950 c          1 FR5       0.300600
      7 O9          -2.7090    -0.0220     1.0020 o          1 FR5      -0.463100
      8 N10         -2.0340    -0.0220     3.1190 nz         1 FR5       0.215600
      9 C13          2.2180     0.0060    -1.1830 c3         1 FR5      -0.094000
     10 C14          3.0960     1.2600    -1.1680 c3         1 FR5       0.220400
     11 O15          3.8630     1.3180    -2.3710 oh         1 FR5      -0.574800
     12 C18          3.1070    -1.2390    -1.1730 c3         1 FR5      -0.067400
     13 C19          2.2360    -2.4870    -1.3250 c3         1 FR5      -0.038700
     14 N22          3.0770    -3.6830    -1.2270 na         1 FR5       0.393600
     15 C27          3.6100    -4.3600    -2.2900 cc         1 FR5      -0.262100
     16 C28          4.3280    -5.4070    -1.8530 cd         1 FR5      -0.127200
     17 C29          4.2470    -5.4010    -0.3900 ca         1 FR5      -0.135800
     18 C30          3.4470    -4.2950    -0.0490 ca         1 FR5      -0.189200
     19 C31          4.7740    -6.2180     0.6120 ca         1 FR5       0.006000
     20 C32          4.5110    -5.9430     1.9230 ca         1 FR5      -0.189000
     21 C33          3.7200    -4.8480     2.2700 ca         1 FR5      -0.036400
     22 C34          3.1840    -4.0300     1.2900 ca         1 FR5      -0.148000
     23 N1           3.4590    -4.5780     3.6180 ns         1 FR5      -0.029100
     24 C2           3.3240    -3.3040     4.0370 c          1 FR5       0.560100
     25 O1           3.5230    -2.3890     3.2660 o          1 FR5      -0.638100
     26 C4           2.9250    -3.0180     5.4610 c3         1 FR5      -0.101400
     27 C6           2.8430    -1.5050     5.6730 c3         1 FR5      -0.000700
     28 C9           0.5280    -0.3840    11.0970 ca         1 FR5      -0.107000
     29 C15          0.2070    -0.6200     9.7910 ca         1 FR5      -0.050000
     30 C10          1.2180    -0.8380     8.8510 ca         1 FR5       0.060400
     31 C16          2.5610    -0.8150     9.2660 ca         1 FR5      -0.257200
     32 C11          2.8700    -0.5660    10.5950 ca         1 FR5      -0.082000
     33 C17          1.8550    -0.3550    11.5050 ca         1 FR5      -0.081000
     34 N11          1.2190    -1.0920     7.5180 nc         1 FR5      -0.552100
     35 C12          2.4450    -1.2180     7.0980 cd         1 FR5       0.204800
     36 N13          3.3130    -1.0540     8.1320 na         1 FR5       0.321700
     37 C7           4.7740    -1.1230     8.0580 c3         1 FR5      -0.008400
     38 H1          -0.6450    -0.0000    -0.8700 h4         1 FR5       0.176000
     39 H3           2.8000     0.0020     1.6240 h5         1 FR5       0.065100
     40 H101        -1.5380     0.7310     3.5540 hn         1 FR5       0.247467
     41 H102        -1.7320    -0.8910     3.5120 hn         1 FR5       0.247467
     42 H13          1.6060     0.0050    -2.0770 h1         1 FR5       0.067700
     43 H141         2.4680     2.1390    -1.0970 h1         1 FR5       0.002200
     44 H142         3.7630     1.2230    -0.3150 h1         1 FR5       0.002200
     45 H15O         4.0560     2.2180    -2.5770 ho         1 FR5       0.412000
     46 H181         3.8110    -1.1870    -1.9950 hc         1 FR5       0.063700
     47 H182         3.6480    -1.2880    -0.2360 hc         1 FR5       0.063700
     48 H191         1.4900    -2.5050    -0.5400 h1         1 FR5       0.028200
     49 H192         1.7450    -2.4690    -2.2900 h1         1 FR5       0.028200
     50 H27          3.4710    -4.0930    -3.3310 h4         1 FR5       0.146000
     51 H28          4.8640    -6.1210    -2.4660 ha         1 FR5       0.136000
     52 H31          5.3900    -7.0700     0.3490 ha         1 FR5       0.109000
     53 H32          4.9770    -6.6980     2.5440 ha         1 FR5       0.120000
     54 H34          2.1120    -4.1240     1.4070 ha         1 FR5       0.109000
     55 HN1          3.3640    -5.3320     4.2700 hn         1 FR5       0.170500
     56 H41          1.9580    -3.4640     5.6610 hc         1 FR5       0.036200
     57 H42          3.6620    -3.4380     6.1340 hc         1 FR5       0.036200
     58 H61          2.1050    -1.0850     5.0010 hc         1 FR5       0.035200
     59 H62          3.8100    -1.0590     5.4720 hc         1 FR5       0.035200
     60 H11          3.9040    -0.5430    10.9190 ha         1 FR5       0.105000
     61 H17          2.0940    -0.1660    12.5440 ha         1 FR5       0.110000
     62 H71          5.1150    -0.6200     7.1610 h1         1 FR5       0.026033
     63 H72          5.0860    -2.1600     8.0310 h1         1 FR5       0.026033
     64 H73          5.2030    -0.6400     8.9280 h1         1 FR5       0.026033
     65 H9          -0.2590    -0.2160    11.8220 ha         1 FR5       0.109000
     66 H103        -3.0160     0.0870     3.2740 hn         1 FR5       0.247467
     67 H15         -0.8320    -0.6400     9.4830 ha         1 FR5       0.102000
@<TRIPOS>BOND
     1     1     2 1   
     2     1     5 2   
     3     1    38 1   
     4     2     3 1   
     5     2     9 1   
     6     3     4 2   
     7     3    39 1   
     8     4     5 1   
     9     5     6 1   
    10     6     7 2   
    11     6     8 1   
    12     8    40 1   
    13     8    41 1   
    14     8    66 1   
    15     9    10 1   
    16     9    12 1   
    17     9    42 1   
    18    10    11 1   
    19    10    43 1   
    20    10    44 1   
    21    11    45 1   
    22    12    13 1   
    23    12    46 1   
    24    12    47 1   
    25    13    14 1   
    26    13    48 1   
    27    13    49 1   
    28    14    15 1   
    29    14    18 1   
    30    15    16 2   
    31    15    50 1   
    32    16    17 1   
    33    16    51 1   
    34    17    18 ar  
    35    17    19 ar  
    36    18    22 ar  
    37    19    20 ar  
    38    19    52 1   
    39    20    21 ar  
    40    20    53 1   
    41    21    22 ar  
    42    21    23 1   
    43    22    54 1   
    44    23    24 1   
    45    23    55 1   
    46    24    25 2   
    47    24    26 1   
    48    26    27 1   
    49    26    56 1   
    50    26    57 1   
    51    27    35 1   
    52    27    58 1   
    53    27    59 1   
    54    28    29 ar  
    55    28    33 ar  
    56    28    65 1   
    57    29    30 ar  
    58    29    67 1   
    59    30    31 ar  
    60    30    34 1   
    61    31    32 ar  
    62    31    36 1   
    63    32    33 ar  
    64    32    60 1   
    65    33    61 1   
    66    34    35 2   
    67    35    36 1   
    68    36    37 1   
    69    37    62 1   
    70    37    63 1   
    71    37    64 1   
@<TRIPOS>SUBSTRUCTURE
     1 FR5         1 TEMP              0 ****  ****    0 ROOT
