@<TRIPOS>MOLECULE
molecule
   67    71     1     0     0
SMALL
bcc


@<TRIPOS>ATOM
      1 C1           0.0000     0.0000     0.0000 cc         1 FR5      -0.116600
      2 N2           1.3540     0.0000     0.0000 na         1 FR5      -0.165900
      3 C3           1.7680     0.0000     1.2940 cc         1 FR5       0.476400
      4 N4           0.7250    -0.0060     2.0730 nd         1 FR5      -0.707000
      5 C5          -0.3960    -0.0110     1.3060 cd         1 FR5       0.157800
      6 C8          -1.7850    -0.0180     1.7950 c          1 FR5       0.453600
      7 O9          -2.7090    -0.0220     1.0020 o          1 FR5      -0.446100
      8 N10         -2.0340    -0.0220     3.1190 nz         1 FR5      -0.668400
      9 C13          2.2180     0.0060    -1.1830 c3         1 FR5       0.032000
     10 C14          3.0960     1.2600    -1.1680 c3         1 FR5       0.132400
     11 O15          3.8630     1.3180    -2.3710 oh         1 FR5      -0.594800
     12 C18          3.1070    -1.2390    -1.1730 c3         1 FR5      -0.118400
     13 C19          2.2360    -2.4870    -1.3250 c3         1 FR5       0.053300
     14 N22          3.0770    -3.6830    -1.2270 na         1 FR5      -0.071400
     15 C27          3.6100    -4.3600    -2.2900 cc         1 FR5      -0.109100
     16 C28          4.3280    -5.4070    -1.8530 cd         1 FR5      -0.174200
     17 C29          4.2470    -5.4010    -0.3900 ca         1 FR5      -0.134800
     18 C30          3.4470    -4.2950    -0.0490 ca         1 FR5      -0.018200
     19 C31          4.7740    -6.2180     0.6120 ca         1 FR5      -0.039000
     20 C32          4.5110    -5.9430     1.9230 ca         1 FR5      -0.209000
     21 C33          3.7200    -4.8480     2.2700 ca         1 FR5       0.103600
     22 C34          3.1840    -4.0300     1.2900 ca         1 FR5      -0.183000
     23 N1           3.4590    -4.5780     3.6180 ns         1 FR5      -0.473100
     24 C2           3.3240    -3.3040     4.0370 c          1 FR5       0.660100
     25 O1           3.5230    -2.3890     3.2660 o          1 FR5      -0.597100
     26 C4           2.9250    -3.0180     5.4610 c3         1 FR5      -0.159400
     27 C6           2.8430    -1.5050     5.6730 c3         1 FR5      -0.063700
     28 C9           0.5280    -0.3840    11.0970 ca         1 FR5      -0.136000
     29 C15          0.2070    -0.6200     9.7910 ca         1 FR5      -0.079000
     30 C10          1.2180    -0.8380     8.8510 ca         1 FR5       0.085400
     31 C16          2.5610    -0.8150     9.2660 ca         1 FR5      -0.086200
     32 C11          2.8700    -0.5660    10.5950 ca         1 FR5      -0.122000
     33 C17          1.8550    -0.3550    11.5050 ca         1 FR5      -0.106000
     34 N11          1.2190    -1.0920     7.5180 nc         1 FR5      -0.631100
     35 C12          2.4450    -1.2180     7.0980 cd         1 FR5       0.409800
     36 N13          3.3130    -1.0540     8.1320 na         1 FR5      -0.147300
     37 C7           4.7740    -1.1230     8.0580 c3         1 FR5       0.036600
     38 H1          -0.6450    -0.0000    -0.8700 h4         1 FR5       0.209000
     39 H3           2.8000     0.0020     1.6240 h5         1 FR5       0.112100
     40 H101        -1.5380     0.7310     3.5540 hn         1 FR5       0.482467
     41 H102        -1.7320    -0.8910     3.5120 hn         1 FR5       0.482467
     42 H13          1.6060     0.0050    -2.0770 h1         1 FR5       0.093700
     43 H141         2.4680     2.1390    -1.0970 h1         1 FR5       0.041200
     44 H142         3.7630     1.2230    -0.3150 h1         1 FR5       0.041200
     45 H15O         4.0560     2.2180    -2.5770 ho         1 FR5       0.427000
     46 H181         3.8110    -1.1870    -1.9950 hc         1 FR5       0.093200
     47 H182         3.6480    -1.2880    -0.2360 hc         1 FR5       0.093200
     48 H191         1.4900    -2.5050    -0.5400 h1         1 FR5       0.055700
     49 H192         1.7450    -2.4690    -2.2900 h1         1 FR5       0.055700
     50 H27          3.4710    -4.0930    -3.3310 h4         1 FR5       0.171000
     51 H28          4.8640    -6.1210    -2.4660 ha         1 FR5       0.164000
     52 H31          5.3900    -7.0700     0.3490 ha         1 FR5       0.143000
     53 H32          4.9770    -6.6980     2.5440 ha         1 FR5       0.142000
     54 H34          2.1120    -4.1240     1.4070 ha         1 FR5       0.132000
     55 HN1          3.3640    -5.3320     4.2700 hn         1 FR5       0.329500
     56 H41          1.9580    -3.4640     5.6610 hc         1 FR5       0.073700
     57 H42          3.6620    -3.4380     6.1340 hc         1 FR5       0.073700
     58 H61          2.1050    -1.0850     5.0010 hc         1 FR5       0.073200
     59 H62          3.8100    -1.0590     5.4720 hc         1 FR5       0.073200
     60 H11          3.9040    -0.5430    10.9190 ha         1 FR5       0.132000
     61 H17          2.0940    -0.1660    12.5440 ha         1 FR5       0.141000
     62 H71          5.1150    -0.6200     7.1610 h1         1 FR5       0.056033
     63 H72          5.0860    -2.1600     8.0310 h1         1 FR5       0.056033
     64 H73          5.2030    -0.6400     8.9280 h1         1 FR5       0.056033
     65 H9          -0.2590    -0.2160    11.8220 ha         1 FR5       0.139000
     66 H103        -3.0160     0.0870     3.2740 hn         1 FR5       0.482467
     67 H15         -0.8320    -0.6400     9.4830 ha         1 FR5       0.133000
@<TRIPOS>BOND
     1     1     2 1
     2     1     5 2
     3     1    38 1
     4     2     3 1
     5     2     9 1
     6     3     4 2
     7     3    39 1
     8     4     5 1
     9     5     6 1
    10     6     7 2
    11     6     8 1
    12     8    40 1
    13     8    41 1
    14     9    10 1
    15     9    12 1
    16     9    42 1
    17    10    11 1
    18    10    43 1
    19    10    44 1
    20    11    45 1
    21    12    13 1
    22    12    46 1
    23    12    47 1
    24    13    14 1
    25    13    48 1
    26    13    49 1
    27    14    15 1
    28    14    18 1
    29    15    16 2
    30    15    50 1
    31    16    17 1
    32    16    51 1
    33    17    18 ar
    34    17    19 ar
    35    18    22 ar
    36    19    20 ar
    37    19    52 1
    38    20    21 ar
    39    20    53 1
    40    21    22 ar
    41    21    23 1
    42    22    54 1
    43    23    24 1
    44    23    55 1
    45    24    25 2
    46    24    26 1
    47    26    27 1
    48    26    56 1
    49    26    57 1
    50    27    35 1
    51    27    58 1
    52    27    59 1
    53    28    29 ar
    54    28    33 ar
    55    28    65 1
    56    29    30 ar
    57    29    67 1
    58    30    31 ar
    59    30    34 1
    60    31    32 ar
    61    31    36 1
    62    32    33 ar
    63    32    60 1
    64    33    61 1
    65    34    35 2
    66    35    36 1
    67    36    37 1
    68    37    62 1
    69    37    63 1
    70    37    64 1
    71    66     8 1
@<TRIPOS>SUBSTRUCTURE
     1 FR5         1 TEMP              0 ****  ****    0 ROOT
