@<TRIPOS>MOLECULE
FR6
   46    48     1     0     0
SMALL
bcc


@<TRIPOS>ATOM
      1 C1           0.0000     0.0000     0.0000 cc         1 FR6      -0.254600
      2 N2           1.3540     0.0000     0.0000 na         1 FR6       0.344100
      3 C3           1.7670     0.0000     1.2950 cc         1 FR6       0.281400
      4 N4           0.7220    -0.0070     2.0720 nd         1 FR6      -0.622000
      5 C5          -0.3970    -0.0110     1.3050 cd         1 FR6       0.112800
      6 C8          -1.7870    -0.0190     1.7930 c          1 FR6       0.299600
      7 O9          -2.7090    -0.0230     1.0000 o          1 FR6      -0.454100
      8 N10         -2.0360    -0.0230     3.1160 nz         1 FR6       0.216600
      9 C13          2.2180     0.0080    -1.1830 c3         1 FR6      -0.095000
     10 C14          3.0960     1.2610    -1.1660 c3         1 FR6       0.184100
     11 O15          3.9520     1.2590    -2.3090 oh         1 FR6      -0.570800
     12 C18          3.1070    -1.2380    -1.1720 c3         1 FR6      -0.046400
     13 C19          2.2370    -2.4870    -1.3240 c3         1 FR6       0.025900
     14 C22          3.1200    -3.7030    -1.4420 ca         1 FR6      -0.105300
     15 C25          3.4590    -4.1860    -2.6680 ca         1 FR6      -0.074000
     16 C26          4.2740    -5.3100    -2.7950 ca         1 FR6      -0.098000
     17 C27          4.7550    -5.9550    -1.6980 ca         1 FR6      -0.069000
     18 C28          4.4260    -5.4840    -0.4150 ca         1 FR6      -0.036000
     19 C29          3.6010    -4.3390    -0.2850 ca         1 FR6      -0.020000
     20 C2           4.9030    -6.1250     0.7410 ca         1 FR6      -0.066000
     21 C4           3.2680    -3.8720     0.9980 ca         1 FR6      -0.127000
     22 C6           4.5630    -5.6410     1.9670 ca         1 FR6      -0.103000
     23 C7           3.7480    -4.5180     2.0950 ca         1 FR6      -0.084000
     24 C9           2.2070     2.5060    -1.1960 c3         1 FR6      -0.045100
     25 H1          -0.6450     0.0000    -0.8700 h4         1 FR6       0.179000
     26 H3           2.7980     0.0020     1.6260 h5         1 FR6       0.051100
     27 H101        -3.0170     0.1000     3.2710 hn         1 FR6       0.246133
     28 H102        -1.7440    -0.8970     3.5080 hn         1 FR6       0.246133
     29 H13          1.6070     0.0070    -2.0770 h1         1 FR6       0.076700
     30 H14          3.6970     1.2690    -0.2650 h1         1 FR6       0.010700
     31 HO           4.6230     1.9110    -2.2000 ho         1 FR6       0.413000
     32 H181         3.8120    -1.1850    -1.9930 hc         1 FR6       0.051700
     33 H182         3.6480    -1.2870    -0.2340 hc         1 FR6       0.051700
     34 H191         1.5950    -2.5890    -0.4580 hc         1 FR6       0.017700
     35 H192         1.6280    -2.3960    -2.2160 hc         1 FR6       0.017700
     36 H25          3.0900    -3.6910    -3.5580 ha         1 FR6       0.106000
     37 H26          4.5290    -5.6750    -3.7830 ha         1 FR6       0.111000
     38 H27          5.3870    -6.8270    -1.8120 ha         1 FR6       0.114000
     39 H2           5.5370    -6.9990     0.6580 ha         1 FR6       0.114000
     40 H4           2.6350    -3.0000     1.1120 ha         1 FR6       0.093000
     41 H6           4.9320    -6.1370     2.8570 ha         1 FR6       0.109000
     42 H7           3.4920    -4.1530     3.0820 ha         1 FR6       0.097000
     43 H91          1.8610     2.7270    -0.1940 hc         1 FR6       0.018700
     44 H92          2.7760     3.3460    -1.5760 hc         1 FR6       0.018700
     45 H93          1.3560     2.3260    -1.8410 hc         1 FR6       0.018700
     46 H103        -1.5450     0.7320     3.5510 hn         1 FR6       0.246133
@<TRIPOS>BOND
     1     1     2 1   
     2     1     5 2   
     3     1    25 1   
     4     2     3 1   
     5     2     9 1   
     6     3     4 2   
     7     3    26 1   
     8     4     5 1   
     9     5     6 1   
    10     6     7 2   
    11     6     8 1   
    12     8    27 1   
    13     8    28 1   
    14     8    46 1   
    15     9    10 1   
    16     9    12 1   
    17     9    29 1   
    18    10    11 1   
    19    10    24 1   
    20    10    30 1   
    21    11    31 1   
    22    12    13 1   
    23    12    32 1   
    24    12    33 1   
    25    13    14 1   
    26    13    34 1   
    27    13    35 1   
    28    14    15 ar  
    29    14    19 ar  
    30    15    16 ar  
    31    15    36 1   
    32    16    17 ar  
    33    16    37 1   
    34    17    18 ar  
    35    17    38 1   
    36    18    19 ar  
    37    18    20 ar  
    38    19    21 ar  
    39    20    22 ar  
    40    20    39 1   
    41    21    23 ar  
    42    21    40 1   
    43    22    23 ar  
    44    22    41 1   
    45    23    42 1   
    46    24    43 1   
    47    24    44 1   
    48    24    45 1   
@<TRIPOS>SUBSTRUCTURE
     1 FR6         1 TEMP              0 ****  ****    0 ROOT
