@<TRIPOS>MOLECULE
FR7
   40    41     1     0     0
SMALL
bcc


@<TRIPOS>ATOM
      1 C1           0.0000     0.0000     0.0000 cc         1 FR7      -0.253600
      2 N2           1.3530     0.0000     0.0000 na         1 FR7       0.344100
      3 C3           1.7670     0.0000     1.2940 cc         1 FR7       0.282400
      4 N4           0.7240    -0.0070     2.0730 nd         1 FR7      -0.622000
      5 C5          -0.3960    -0.0110     1.3050 cd         1 FR7       0.111800
      6 C8          -1.7860    -0.0190     1.7930 c          1 FR7       0.299600
      7 O9          -2.7090    -0.0230     1.0010 o          1 FR7      -0.453100
      8 N10         -2.0350    -0.0230     3.1180 nz         1 FR7       0.214600
      9 C13          2.2180     0.0070    -1.1830 c3         1 FR7      -0.093000
     10 C14          3.0950     1.2600    -1.1670 c3         1 FR7       0.184100
     11 O15          3.9740     1.2410    -2.2920 oh         1 FR7      -0.570800
     12 C18          3.1070    -1.2380    -1.1720 c3         1 FR7      -0.046400
     13 C2           2.2360    -2.4870    -1.3240 c3         1 FR7       0.023900
     14 C22          3.1010    -3.7170    -1.2210 ca         1 FR7      -0.095300
     15 C25          3.1580    -4.4250    -0.0340 ca         1 FR7      -0.096000
     16 C26          3.9510    -5.5530     0.0620 ca         1 FR7      -0.081000
     17 C27          4.6870    -5.9750    -1.0290 ca         1 FR7      -0.078000
     18 C28          4.6320    -5.2690    -2.2160 ca         1 FR7      -0.036600
     19 C29          3.8320    -4.1420    -2.3140 ca         1 FR7      -0.037600
     20 Cl1          5.5570    -5.8000    -3.5870 cl         1 FR7       0.024600
     21 Cl2          3.7600    -3.2560    -3.8050 cl         1 FR7       0.010600
     22 C9           2.2080     2.5050    -1.2340 c3         1 FR7      -0.045100
     23 H1          -0.6450     0.0000    -0.8700 h4         1 FR7       0.180000
     24 H3           2.7990     0.0020     1.6250 h5         1 FR7       0.050100
     25 H101        -3.0240    -0.0200     3.2720 hn         1 FR7       0.246133
     26 H102        -1.6370    -0.8440     3.5300 hn         1 FR7       0.246133
     27 H13          1.6070     0.0060    -2.0770 h1         1 FR7       0.077700
     28 H14          3.6780     1.2810    -0.2540 h1         1 FR7       0.009700
     29 HO           4.6300     1.9110    -2.1910 ho         1 FR7       0.414000
     30 H181         3.8110    -1.1860    -1.9940 hc         1 FR7       0.052700
     31 H182         3.6480    -1.2870    -0.2350 hc         1 FR7       0.052700
     32 H21          1.4890    -2.5050    -0.5400 hc         1 FR7       0.021200
     33 H22          1.7470    -2.4710    -2.2900 hc         1 FR7       0.021200
     34 H25          2.5810    -4.0940     0.8220 ha         1 FR7       0.101000
     35 H26          3.9950    -6.1060     0.9930 ha         1 FR7       0.113000
     36 H27          5.3110    -6.8570    -0.9530 ha         1 FR7       0.125000
     37 H91          1.3680     2.3150    -1.8910 hc         1 FR7       0.019033
     38 H92          2.7840     3.3390    -1.6160 hc         1 FR7       0.019033
     39 H93          1.8440     2.7430    -0.2420 hc         1 FR7       0.019033
     40 H103        -1.6350     0.7940     3.5350 hn         1 FR7       0.246133
@<TRIPOS>BOND
     1     1     2 1   
     2     1     5 2   
     3     1    23 1   
     4     2     3 1   
     5     2     9 1   
     6     3     4 2   
     7     3    24 1   
     8     4     5 1   
     9     5     6 1   
    10     6     7 2   
    11     6     8 1   
    12     8    25 1   
    13     8    26 1   
    14     8    40 1   
    15     9    10 1   
    16     9    12 1   
    17     9    27 1   
    18    10    11 1   
    19    10    22 1   
    20    10    28 1   
    21    11    29 1   
    22    12    13 1   
    23    12    30 1   
    24    12    31 1   
    25    13    14 1   
    26    13    32 1   
    27    13    33 1   
    28    14    15 ar  
    29    14    19 ar  
    30    15    16 ar  
    31    15    34 1   
    32    16    17 ar  
    33    16    35 1   
    34    17    18 ar  
    35    17    36 1   
    36    18    19 ar  
    37    18    20 1   
    38    19    21 1   
    39    22    37 1   
    40    22    38 1   
    41    22    39 1   
@<TRIPOS>SUBSTRUCTURE
     1 FR7         1 TEMP              0 ****  ****    0 ROOT
