@<TRIPOS>MOLECULE
molecule
   67    70     1     0     0
SMALL
bcc


@<TRIPOS>ATOM
      1 C1           0.0000     0.0000     0.0000 cc         1 FR8      -0.115600
      2 N2           1.3530     0.0000     0.0000 na         1 FR8      -0.158900
      3 C3           1.7680     0.0000     1.2930 cc         1 FR8       0.483400
      4 N4           0.7240     0.0050     2.0720 nd         1 FR8      -0.722000
      5 C5          -0.3960    -0.0000     1.3040 cd         1 FR8       0.159800
      6 C8          -1.7860    -0.0000     1.7940 c          1 FR8       0.452600
      7 O9          -2.7090     0.0000     1.0010 o          1 FR8      -0.442100
      8 N10         -2.0350    -0.0010     3.1180 nz         1 FR8      -0.669400
      9 C13          2.2180    -0.0000    -1.1840 c3         1 FR8       0.043000
     10 C14          3.1000     1.2490    -1.1710 c3         1 FR8       0.121400
     11 O15          3.9080     1.2500     0.0090 oh         1 FR8      -0.621800
     12 C18          3.1010    -1.2480    -1.1700 c3         1 FR8      -0.122400
     13 C19          4.0020    -1.2480    -2.4060 c3         1 FR8       0.061300
     14 N22          4.8490    -2.4450    -2.3930 na         1 FR8      -0.084400
     15 C27          4.5190    -3.6460    -2.9590 cc         1 FR8      -0.118100
     16 C28          5.5130    -4.5280    -2.7690 cd         1 FR8      -0.171200
     17 C29          6.5650    -3.8350    -2.0210 ca         1 FR8      -0.114800
     18 C30          6.0960    -2.5250    -1.8150 ca         1 FR8      -0.022200
     19 C31          7.8180    -4.2140    -1.5350 ca         1 FR8      -0.056000
     20 C32          8.5840    -3.3100    -0.8550 ca         1 FR8      -0.145000
     21 C33          8.1250    -2.0130    -0.6430 ca         1 FR8       0.090600
     22 C34          6.8860    -1.6190    -1.1170 ca         1 FR8      -0.193000
     23 N1           8.9230    -1.0990     0.0560 ns         1 FR8      -0.487100
     24 C2           9.6430    -1.5070     1.1190 c          1 FR8       0.656100
     25 O1           9.5230    -2.6410     1.5320 o          1 FR8      -0.585100
     26 C4          10.5970    -0.5570     1.7940 c3         1 FR8      -0.157400
     27 C6          11.2820    -1.2660     2.9640 c3         1 FR8      -0.068400
     28 C7          13.4500     0.7370     6.5360 ca         1 FR8      -0.126000
     29 C11         13.8900    -0.0590     5.4940 ca         1 FR8      -0.085300
     30 C9          15.2050     0.0130     5.0760 ca         1 FR8      -0.126000
     31 C12         16.0800     0.8880     5.6930 ca         1 FR8      -0.125000
     32 C10         15.6400     1.6850     6.7340 ca         1 FR8      -0.129000
     33 C15         14.3250     1.6090     7.1550 ca         1 FR8      -0.125000
     34 C16         12.2500    -0.3020     3.6490 c3         1 FR8      -0.080400
     35 C17         12.9360    -1.0100     4.8190 c3         1 FR8      -0.033100
     36 H1          -0.6450    -0.0020    -0.8700 h4         1 FR8       0.209000
     37 H3           2.8000     0.0010     1.6230 h5         1 FR8       0.115100
     38 H101        -3.0240    -0.0030     3.2720 hn         1 FR8       0.481133
     39 H102        -1.6310    -0.8170     3.5330 hn         1 FR8       0.481133
     40 H13          1.6060    -0.0010    -2.0780 h1         1 FR8       0.090700
     41 H141         3.7380     1.2490    -2.0460 h1         1 FR8       0.051200
     42 H142         2.4740     2.1330    -1.1800 h1         1 FR8       0.051200
     43 H15          4.3300     2.0880     0.1000 ho         1 FR8       0.429000
     44 H181         3.7130    -1.2480    -0.2760 hc         1 FR8       0.078200
     45 H182         2.4760    -2.1330    -1.1790 hc         1 FR8       0.078200
     46 H191         4.6270    -0.3640    -2.3970 h1         1 FR8       0.060700
     47 H192         3.3900    -1.2490    -3.2990 h1         1 FR8       0.060700
     48 H27          3.5940    -3.8540    -3.4830 h4         1 FR8       0.163000
     49 H28          5.5330    -5.5580    -3.1050 ha         1 FR8       0.162000
     50 H31          8.1810    -5.2210    -1.6960 ha         1 FR8       0.143000
     51 H32          9.5560    -3.6050    -0.4790 ha         1 FR8       0.160000
     52 H34          6.5350    -0.6080    -0.9480 ha         1 FR8       0.120000
     53 HN1          8.9650    -0.1440    -0.2390 hn         1 FR8       0.321500
     54 H41         11.3450    -0.2300     1.0820 hc         1 FR8       0.061700
     55 H42         10.0500     0.3020     2.1630 hc         1 FR8       0.061700
     56 H61         11.8290    -2.1250     2.5950 hc         1 FR8       0.059700
     57 H62         10.5330    -1.5930     3.6760 hc         1 FR8       0.059700
     58 H9          15.5500    -0.6110     4.2600 ha         1 FR8       0.128500
     59 H12         17.1100     0.9470     5.3640 ha         1 FR8       0.130500
     60 H10         16.3250     2.3700     7.2190 ha         1 FR8       0.131000
     61 H2          13.9810     2.2330     7.9710 ha         1 FR8       0.130500
     62 H161        12.9980     0.0260     2.9370 hc         1 FR8       0.043700
     63 H162        11.7030     0.5570     4.0190 hc         1 FR8       0.043700
     64 H171        12.1880    -1.3370     5.5310 hc         1 FR8       0.051200
     65 H172        13.4830    -1.8690     4.4500 hc         1 FR8       0.051200
     66 H103        -1.6300     0.8150     3.5340 hn         1 FR8       0.481133
     67 H7          12.4200     0.6790     6.8650 ha         1 FR8       0.128500
@<TRIPOS>BOND
     1     1     2 1
     2     1     5 2
     3     1    36 1
     4     2     3 1
     5     2     9 1
     6     3     4 2
     7     3    37 1
     8     4     5 1
     9     5     6 1
    10     6     7 2
    11     6     8 1
    12     8    38 1
    13     8    39 1
    14     9    10 1
    15     9    12 1
    16     9    40 1
    17    10    11 1
    18    10    41 1
    19    10    42 1
    20    11    43 1
    21    12    13 1
    22    12    44 1
    23    12    45 1
    24    13    14 1
    25    13    46 1
    26    13    47 1
    27    14    15 1
    28    14    18 1
    29    15    16 2
    30    15    48 1
    31    16    17 1
    32    16    49 1
    33    17    18 ar
    34    17    19 ar
    35    18    22 ar
    36    19    20 ar
    37    19    50 1
    38    20    21 ar
    39    20    51 1
    40    21    22 ar
    41    21    23 1
    42    22    52 1
    43    23    24 1
    44    23    53 1
    45    24    25 2
    46    24    26 1
    47    26    27 1
    48    26    54 1
    49    26    55 1
    50    27    34 1
    51    27    56 1
    52    27    57 1
    53    28    29 ar
    54    28    33 ar
    55    28    67 1
    56    29    30 ar
    57    29    35 1
    58    30    31 ar
    59    30    58 1
    60    31    32 ar
    61    31    59 1
    62    32    33 ar
    63    32    60 1
    64    33    61 1
    65    34    35 1
    66    34    62 1
    67    34    63 1
    68    35    64 1
    69    35    65 1
    70    66     8 1
@<TRIPOS>SUBSTRUCTURE
     1 FR8         1 TEMP              0 ****  ****    0 ROOT
