@<TRIPOS>MOLECULE
molecule
   60    63     1     0     0
SMALL
bcc


@<TRIPOS>ATOM
      1 C1           0.0000     0.0000     0.0000 cc         1 FR9      -0.115600
      2 N2           1.3540     0.0000     0.0000 na         1 FR9      -0.158900
      3 C3           1.7670     0.0000     1.2950 cc         1 FR9       0.484400
      4 N4           0.7230     0.0040     2.0720 nd         1 FR9      -0.722000
      5 C5          -0.3960    -0.0010     1.3050 cd         1 FR9       0.159800
      6 C8          -1.7860    -0.0010     1.7920 c          1 FR9       0.452600
      7 O9          -2.7090     0.0010     0.9990 o          1 FR9      -0.443100
      8 N10         -2.0370    -0.0010     3.1160 nz         1 FR9      -0.669400
      9 C13          2.2190     0.0010    -1.1810 c3         1 FR9       0.042000
     10 C14          3.1020     1.2500    -1.1680 c3         1 FR9       0.121400
     11 O15          3.9080     1.2500     0.0130 oh         1 FR9      -0.620800
     12 C18          3.1020    -1.2480    -1.1680 c3         1 FR9      -0.122400
     13 C19          4.0050    -1.2470    -2.4020 c3         1 FR9       0.061300
     14 N22          4.8510    -2.4430    -2.3900 na         1 FR9      -0.085400
     15 C27          4.5220    -3.6460    -2.9560 cc         1 FR9      -0.120100
     16 C28          5.5150    -4.5280    -2.7660 cd         1 FR9      -0.170200
     17 C29          6.5650    -3.8350    -2.0160 ca         1 FR9      -0.117800
     18 C30          6.0980    -2.5240    -1.8110 ca         1 FR9      -0.021200
     19 C31          7.8180    -4.2140    -1.5280 ca         1 FR9      -0.057000
     20 C32          8.5840    -3.3120    -0.8480 ca         1 FR9      -0.144000
     21 C33          8.1250    -2.0130    -0.6350 ca         1 FR9       0.111600
     22 C34          6.8870    -1.6190    -1.1120 ca         1 FR9      -0.198000
     23 N1           8.9220    -1.1000     0.0650 ns         1 FR9      -0.499100
     24 C2           9.6410    -1.5080     1.1300 c          1 FR9       0.778100
     25 O1           9.5160    -2.6440     1.5460 o          1 FR9      -0.641100
     26 N3          10.4950    -0.6610     1.7330 ns         1 FR9      -0.597900
     27 C6          11.2750    -1.1060     2.8900 c3         1 FR9       0.178300
     28 C7          11.6710     0.9060     4.3250 ca         1 FR9      -0.111500
     29 C11         12.1470     0.0240     3.3740 ca         1 FR9      -0.125300
     30 C9          13.4250     0.1750     2.8710 ca         1 FR9      -0.111500
     31 C12         14.2230     1.2130     3.3100 ca         1 FR9      -0.130000
     32 C10         13.7470     2.0960     4.2620 ca         1 FR9      -0.115000
     33 C15         12.4700     1.9420     4.7690 ca         1 FR9      -0.130000
     34 H1          -0.6450    -0.0020    -0.8700 h4         1 FR9       0.209000
     35 H3           2.7980     0.0010     1.6260 h5         1 FR9       0.115100
     36 H101        -3.0260    -0.0020     3.2690 hn         1 FR9       0.480800
     37 H102        -1.6360     0.8160     3.5320 hn         1 FR9       0.480800
     38 H13          1.6080     0.0010    -2.0760 h1         1 FR9       0.090700
     39 H141         3.7410     1.2500    -2.0420 h1         1 FR9       0.051200
     40 H142         2.4760     2.1350    -1.1780 h1         1 FR9       0.051200
     41 H15          4.3310     2.0870     0.1050 ho         1 FR9       0.428000
     42 H181         3.7130    -1.2480    -0.2730 hc         1 FR9       0.078200
     43 H182         2.4760    -2.1320    -1.1780 hc         1 FR9       0.078200
     44 H191         3.3940    -1.2470    -3.2970 h1         1 FR9       0.060200
     45 H192         4.6300    -0.3630    -2.3920 h1         1 FR9       0.060200
     46 H27          3.5980    -3.8540    -3.4810 h4         1 FR9       0.162000
     47 H28          5.5360    -5.5570    -3.1020 ha         1 FR9       0.162000
     48 H31          8.1810    -5.2210    -1.6890 ha         1 FR9       0.142000
     49 H32          9.5550    -3.6070    -0.4690 ha         1 FR9       0.164000
     50 H34          6.5360    -0.6080    -0.9430 ha         1 FR9       0.119000
     51 HN1          8.9640    -0.1440    -0.2290 hn         1 FR9       0.315500
     52 HN3         10.5970     0.2740     1.3910 hn         1 FR9       0.311500
     53 H61         11.8970    -1.9460     2.6050 h1         1 FR9       0.061700
     54 H62         10.6020    -1.4080     3.6840 h1         1 FR9       0.061700
     55 H9          13.7990    -0.5170     2.1250 ha         1 FR9       0.134000
     56 H12         15.2240     1.3320     2.9140 ha         1 FR9       0.135000
     57 H10         14.3730     2.9090     4.6080 ha         1 FR9       0.135000
     58 H2          12.0960     2.6330     5.5150 ha         1 FR9       0.135000
     59 H103        -1.6290    -0.8150     3.5330 hn         1 FR9       0.480800
     60 H7          10.6700     0.7850     4.7230 ha         1 FR9       0.134000
@<TRIPOS>BOND
     1     1     2 1
     2     1     5 2
     3     1    34 1
     4     2     3 1
     5     2     9 1
     6     3     4 2
     7     3    35 1
     8     4     5 1
     9     5     6 1
    10     6     7 2
    11     6     8 1
    12     8    36 1
    13     8    37 1
    14     9    10 1
    15     9    12 1
    16     9    38 1
    17    10    11 1
    18    10    39 1
    19    10    40 1
    20    11    41 1
    21    12    13 1
    22    12    42 1
    23    12    43 1
    24    13    14 1
    25    13    44 1
    26    13    45 1
    27    14    15 1
    28    14    18 1
    29    15    16 2
    30    15    46 1
    31    16    17 1
    32    16    47 1
    33    17    18 ar
    34    17    19 ar
    35    18    22 ar
    36    19    20 ar
    37    19    48 1
    38    20    21 ar
    39    20    49 1
    40    21    22 ar
    41    21    23 1
    42    22    50 1
    43    23    24 1
    44    23    51 1
    45    24    25 2
    46    24    26 1
    47    26    27 1
    48    26    52 1
    49    27    29 1
    50    27    53 1
    51    27    54 1
    52    28    29 ar
    53    28    33 ar
    54    28    60 1
    55    29    30 ar
    56    30    31 ar
    57    30    55 1
    58    31    32 ar
    59    31    56 1
    60    32    33 ar
    61    32    57 1
    62    33    58 1
    63    59     8 1
@<TRIPOS>SUBSTRUCTURE
     1 FR9         1 TEMP              0 ****  ****    0 ROOT
