@<TRIPOS>MOLECULE
molecule
   53    56     1     0     0
SMALL
bcc


@<TRIPOS>ATOM
      1 C22          0.0000     0.0000     0.0000 c3         1 FRA      -0.172100
      2 C1           1.5070     0.0000     0.0000 c          1 FRA       0.655100
      3 O3           2.1130     0.0000     1.0500 o          1 FRA      -0.586100
      4 N1           2.1810    -0.0000    -1.1670 ns         1 FRA      -0.483100
      5 C2           3.5760    -0.1180    -1.1700 ca         1 FRA       0.049600
      6 C7           4.2040    -0.9510    -0.2540 ca         1 FRA      -0.133500
      7 C6           5.5790    -1.0670    -0.2580 ca         1 FRA      -0.101500
      8 C5           6.3340    -0.3500    -1.1760 ca         1 FRA       0.021600
      9 C4           5.7070     0.4820    -2.0910 ca         1 FRA      -0.101500
     10 C3           4.3310     0.5950    -2.0920 ca         1 FRA      -0.133500
     11 N5           7.7330    -0.4680    -1.1780 n          1 FRA      -0.388600
     12 C11          8.3620    -1.6350    -0.9890 c          1 FRA       0.714500
     13 C10          9.8560    -1.4110    -1.0550 c3         1 FRA      -0.145700
     14 C9           9.9830     0.1040    -1.3140 c3         1 FRA      -0.163700
     15 C8           8.5470     0.5750    -1.3770 c          1 FRA       0.708500
     16 O11          7.8190    -2.7020    -0.7980 o          1 FRA      -0.594500
     17 O8           8.1910     1.7190    -1.5540 o          1 FRA      -0.560500
     18 C12         10.4840    -1.7630     0.2940 c3         1 FRA      -0.056700
     19 C17         11.9620    -1.3670     0.2910 c3         1 FRA      -0.076900
     20 C16         12.0850     0.1400     0.0560 c3         1 FRA      -0.100900
     21 C13          9.7550    -1.0110     1.4090 c3         1 FRA      -0.076900
     22 C15         10.6910     0.7480    -0.0980 c3         1 FRA       0.181400
     23 N15         10.8100     2.1910    -0.3210 ns         1 FRA      -0.580900
     24 C18         11.4040     2.9680     0.6040 c          1 FRA       0.752100
     25 O18         11.8400     2.4740     1.6240 o          1 FRA      -0.656000
     26 O19         11.5140     4.2940     0.3990 os         1 FRA      -0.403900
     27 C19         12.1540     5.1330     1.3960 c3         1 FRA       0.059400
     28 C20         12.1480     6.5660     0.9280 c          1 FRA       0.893600
     29 O20         11.6550     6.8500    -0.1370 o          1 FRA      -0.827800
     30 O21         12.6890     7.5250     1.6940 o          1 FRA      -0.827800
     31 H221        -0.3610    -0.2030     1.0010 hc         1 FRA       0.060367
     32 H222        -0.3610     0.9680    -0.3250 hc         1 FRA       0.060367
     33 H223        -0.3610    -0.7650    -0.6760 hc         1 FRA       0.060367
     34 HN1          1.6820     0.0640    -2.0320 hn         1 FRA       0.320500
     35 H7           3.6150    -1.5100     0.4630 ha         1 FRA       0.144500
     36 H6           6.0700    -1.7160     0.4570 ha         1 FRA       0.154000
     37 H4           6.2960     1.0400    -2.8090 ha         1 FRA       0.154000
     38 H3           3.8410     1.2440    -2.8070 ha         1 FRA       0.144500
     39 H10         10.3030    -1.9840    -1.8580 hc         1 FRA       0.087700
     40 H9          10.5100     0.3070    -2.2380 hc         1 FRA       0.096700
     41 H12         10.3970    -2.8300     0.4630 hc         1 FRA       0.060700
     42 H171        12.4060    -1.6220     1.2450 hc         1 FRA       0.044950
     43 H172        12.4760    -1.8990    -0.5000 hc         1 FRA       0.044950
     44 H161        12.5870     0.5960     0.9010 hc         1 FRA       0.076200
     45 H162        12.6590     0.3190    -0.8450 hc         1 FRA       0.076200
     46 H131         8.7090    -1.2930     1.4110 hc         1 FRA       0.044950
     47 H132        10.1990    -1.2640     2.3640 hc         1 FRA       0.044950
     48 HN5         10.4850     2.5930    -1.1780 hn         1 FRA       0.336500
     49 H191        11.6140     5.0570     2.3320 h1         1 FRA       0.037200
     50 H192        13.1760     4.8050     1.5420 h1         1 FRA       0.037200
     51 C14          9.8780     0.4950     1.1720 c3         1 FRA      -0.100900
     52 H141        10.3780     0.9540     2.0170 hc         1 FRA       0.076200
     53 H142         8.8900     0.9250     1.0610 hc         1 FRA       0.076200
@<TRIPOS>BOND
     1     1     2 1
     2     1    31 1
     3     1    32 1
     4     1    33 1
     5     2     3 2
     6     2     4 1
     7     4     5 1
     8     4    34 1
     9     5     6 ar
    10     5    10 ar
    11     6     7 ar
    12     6    35 1
    13     7     8 ar
    14     7    36 1
    15     8     9 ar
    16     8    11 1
    17     9    10 ar
    18     9    37 1
    19    10    38 1
    20    11    12 1
    21    11    15 1
    22    12    13 1
    23    12    16 2
    24    13    14 1
    25    13    18 1
    26    13    39 1
    27    14    15 1
    28    14    22 1
    29    14    40 1
    30    15    17 2
    31    18    19 1
    32    18    21 1
    33    18    41 1
    34    19    20 1
    35    19    42 1
    36    19    43 1
    37    20    22 1
    38    20    44 1
    39    20    45 1
    40    51    21 1
    41    51    22 1
    42    51    52 1
    43    51    53 1
    44    21    46 1
    45    21    47 1
    46    22    23 1
    47    23    24 1
    48    23    48 1
    49    24    25 2
    50    24    26 1
    51    26    27 1
    52    27    28 1
    53    27    49 1
    54    27    50 1
    55    28    29 1
    56    28    30 1
@<TRIPOS>SUBSTRUCTURE
     1 FRA         1 TEMP              0 ****  ****    0 ROOT
