@<TRIPOS>MOLECULE
FRB
   70    73     1     0     0
SMALL
bcc


@<TRIPOS>ATOM
      1 N1           0.0000     0.0000     0.0000 n2         1 FRB      -0.626100
      2 C2           1.3030     0.0000     0.0000 c2         1 FRB       0.317100
      3 N3           1.9910     0.0000     1.1900 nz         1 FRB       0.017400
      4 N4           1.9900    -0.0000    -1.1910 nu         1 FRB      -0.398200
      5 C5           3.4490    -0.1210    -1.1960 c3         1 FRB       0.030500
      6 C6           3.8560    -1.4060    -0.4710 c3         1 FRB      -0.069700
      7 C7           3.3510    -2.6170    -1.2590 c3         1 FRB      -0.034400
      8 C8           3.7590    -3.9020    -0.5330 c3         1 FRB      -0.017900
      9 C9           5.2840    -3.9650    -0.4240 c3         1 FRB      -0.027400
     10 C10          5.7890    -2.7530     0.3630 c3         1 FRB      -0.017900
     11 C11          5.3820    -1.4680    -0.3620 c3         1 FRB      -0.034400
     12 C12          4.0540     1.0660    -0.4910 c          1 FRB       0.544100
     13 O13          3.3800     1.7270     0.2700 o          1 FRB      -0.732100
     14 N14          5.3440     1.3930    -0.7070 ns         1 FRB      -0.095900
     15 C15          5.9320     2.5470    -0.0230 c3         1 FRB      -0.048000
     16 C16          7.3740     2.6940    -0.4340 c          1 FRB       0.575100
     17 O17          7.8620     1.9120    -1.2210 o          1 FRB      -0.656100
     18 N18          8.1200     3.6940     0.0740 n          1 FRB      -0.122800
     19 C19          9.5280     3.8510    -0.3180 c3         1 FRB       0.043000
     20 C20         10.3890     3.9030     0.9480 c3         1 FRB      -0.044900
     21 C23          7.5400     4.6530     1.0240 c3         1 FRB       0.043000
     22 C22          8.4260     4.6930     2.2790 c3         1 FRB      -0.044900
     23 C21          9.8670     5.0060     1.8710 c3         1 FRB       0.041600
     24 C24         10.7330     5.0830     3.1020 cc         1 FRB      -0.263600
     25 N25         11.3230     4.0390     3.7230 na         1 FRB       0.451400
     26 N26         12.0360     4.5330     4.8230 nc         1 FRB      -0.639800
     27 C28         11.0580     6.2080     3.7740 cd         1 FRB      -0.304300
     28 C27         11.8770     5.8390     4.8600 cd         1 FRB       0.429800
     29 C29         12.4610     6.7620     5.8660 ca         1 FRB      -0.105500
     30 C34         11.7090     7.8270     6.3600 ca         1 FRB      -0.026600
     31 Cl36        10.0830     8.0730     5.8040 cl         1 FRB      -0.010400
     32 C30         13.7660     6.5700     6.3150 ca         1 FRB      -0.064000
     33 C31         14.3060     7.4300     7.2490 ca         1 FRB      -0.090000
     34 C32         13.5540     8.4830     7.7420 ca         1 FRB      -0.081000
     35 C33         12.2580     8.6790     7.2990 ca         1 FRB      -0.042600
     36 Cl35        11.3210    10.0020     7.9200 cl         1 FRB       0.001600
     37 HN1         -0.5020     0.0000     0.8660 hn         1 FRB       0.346400
     38 HN31         2.9670     0.1310     1.0120 hn         1 FRB       0.254467
     39 HN32         1.8510    -0.8740     1.6570 hn         1 FRB       0.254467
     40 HN4          1.4940     0.1040    -2.0550 hn         1 FRB       0.342800
     41 H5           3.8060    -0.1550    -2.2180 h1         1 FRB       0.089700
     42 H6           3.4240    -1.4180     0.5220 hc         1 FRB      -0.010300
     43 H71          2.2720    -2.5730    -1.3340 hc         1 FRB       0.028700
     44 H72          3.7880    -2.6090    -2.2500 hc         1 FRB       0.028700
     45 H81          3.4030    -4.7590    -1.0920 hc         1 FRB       0.022200
     46 H82          3.3260    -3.9060     0.4600 hc         1 FRB       0.022200
     47 H91          5.5700    -4.8730     0.0910 hc         1 FRB       0.031200
     48 H92          5.7160    -3.9550    -1.4170 hc         1 FRB       0.031200
     49 H101         6.8680    -2.7970     0.4370 hc         1 FRB       0.022200
     50 H102         5.3520    -2.7610     1.3540 hc         1 FRB       0.022200
     51 H111         5.8140    -1.4630    -1.3550 hc         1 FRB       0.028700
     52 H112         5.7380    -0.6120     0.1980 hc         1 FRB       0.028700
     53 H14          5.8870     0.8750    -1.3700 hn         1 FRB       0.223500
     54 H151         5.8750     2.3980     1.0490 h1         1 FRB       0.052700
     55 H152         5.3860     3.4430    -0.2920 h1         1 FRB       0.052700
     56 H191         9.8310     3.0080    -0.9270 h1         1 FRB       0.038200
     57 H192         9.6490     4.7720    -0.8760 h1         1 FRB       0.038200
     58 H201        10.3340     2.9500     1.4590 hc         1 FRB       0.030450
     59 H202        11.4160     4.1160     0.6770 hc         1 FRB       0.030450
     60 H231         7.5070     5.6370     0.5720 h1         1 FRB       0.038200
     61 H232         6.5400     4.3370     1.2950 h1         1 FRB       0.038200
     62 H221         8.3930     3.7300     2.7750 hc         1 FRB       0.030450
     63 H222         8.0660     5.4640     2.9500 hc         1 FRB       0.030450
     64 H21          9.8930     5.9540     1.3470 hc         1 FRB       0.050700
     65 H25         11.2620     3.0800     3.4460 hn         1 FRB       0.147700
     66 H28         10.7410     7.2140     3.5270 ha         1 FRB       0.150000
     67 H30         14.3570     5.7470     5.9310 ha         1 FRB       0.121000
     68 H31         15.3200     7.2810     7.5990 ha         1 FRB       0.112000
     69 H32         13.9810     9.1540     8.4760 ha         1 FRB       0.120000
     70 H33          1.6530     0.7410     1.7710 hn         1 FRB       0.254467
@<TRIPOS>BOND
     1     1     2 2   
     2     1    37 1   
     3     2     3 1   
     4     2     4 1   
     5     3    38 1   
     6     3    39 1   
     7     3    70 1   
     8     4     5 1   
     9     4    40 1   
    10     5     6 1   
    11     5    12 1   
    12     5    41 1   
    13     6     7 1   
    14     6    11 1   
    15     6    42 1   
    16     7     8 1   
    17     7    43 1   
    18     7    44 1   
    19     8     9 1   
    20     8    45 1   
    21     8    46 1   
    22     9    10 1   
    23     9    47 1   
    24     9    48 1   
    25    10    11 1   
    26    10    49 1   
    27    10    50 1   
    28    11    51 1   
    29    11    52 1   
    30    12    13 2   
    31    12    14 1   
    32    14    15 1   
    33    14    53 1   
    34    15    16 1   
    35    15    54 1   
    36    15    55 1   
    37    16    17 2   
    38    16    18 1   
    39    18    19 1   
    40    18    21 1   
    41    19    20 1   
    42    19    56 1   
    43    19    57 1   
    44    20    23 1   
    45    20    58 1   
    46    20    59 1   
    47    21    22 1   
    48    21    60 1   
    49    21    61 1   
    50    22    23 1   
    51    22    62 1   
    52    22    63 1   
    53    23    24 1   
    54    23    64 1   
    55    24    25 1   
    56    24    27 2   
    57    25    26 1   
    58    25    65 1   
    59    26    28 2   
    60    27    28 1   
    61    27    66 1   
    62    28    29 1   
    63    29    30 ar  
    64    29    32 ar  
    65    30    31 1   
    66    30    35 ar  
    67    32    33 ar  
    68    32    67 1   
    69    33    34 ar  
    70    33    68 1   
    71    34    35 ar  
    72    34    69 1   
    73    35    36 1   
@<TRIPOS>SUBSTRUCTURE
     1 FRB         1 TEMP              0 ****  ****    0 ROOT
