@<TRIPOS>MOLECULE
molecule
   47    49     1     0     0
SMALL
bcc


@<TRIPOS>ATOM
      1 C1           0.0000     0.0000     0.0000 cc         1 FRC      -0.104600
      2 N2           1.3540     0.0000     0.0000 na         1 FRC      -0.157900
      3 C3           1.7680     0.0000     1.2930 cc         1 FRC       0.459400
      4 N4           0.7250    -0.0050     2.0720 nd         1 FRC      -0.710000
      5 C5          -0.3960    -0.0090     1.3050 cd         1 FRC       0.157800
      6 C8          -1.7860    -0.0160     1.7940 c          1 FRC       0.454600
      7 O9          -2.7090    -0.0190     1.0020 o          1 FRC      -0.439100
      8 N10         -2.0340    -0.0190     3.1190 nz         1 FRC      -0.669400
      9 C13          2.2180     0.0050    -1.1830 c3         1 FRC       0.043000
     10 C14          3.0960     1.2580    -1.1680 c3         1 FRC       0.137100
     11 O15          3.9740     1.2370    -2.2960 oh         1 FRC      -0.592800
     12 C18          3.1060    -1.2410    -1.1720 c3         1 FRC      -0.101400
     13 C2           2.2340    -2.4890    -1.3230 c3         1 FRC       0.124400
     14 C9           2.2090     2.5030    -1.2340 c3         1 FRC      -0.131100
     15 O1           3.0540    -3.6570    -1.2280 os         1 FRC      -0.294900
     16 C11          0.1820    -9.2550    -1.7580 ca         1 FRC      -0.125000
     17 C17         -0.3380    -7.9980    -1.8070 ca         1 FRC      -0.110000
     18 C12          0.5110    -6.8880    -1.6620 ca         1 FRC      -0.077000
     19 C4           1.9000    -7.0980    -1.4650 ca         1 FRC      -0.001000
     20 C15          2.4000    -8.4100    -1.4200 ca         1 FRC      -0.124000
     21 C6           1.5460    -9.4600    -1.5650 ca         1 FRC      -0.104000
     22 C7           0.0100    -5.5750    -1.7060 ca         1 FRC      -0.088000
     23 C16          0.8600    -4.5230    -1.5620 ca         1 FRC      -0.250000
     24 C19          2.2300    -4.7270    -1.3690 ca         1 FRC       0.135100
     25 C10          2.7520    -5.9890    -1.3240 ca         1 FRC      -0.146000
     26 H1          -0.6450     0.0000    -0.8700 h4         1 FRC       0.212000
     27 H3           2.7990     0.0020     1.6240 h5         1 FRC       0.099100
     28 H101        -1.5380     0.7340     3.5530 hn         1 FRC       0.481133
     29 H102        -1.7340    -0.8880     3.5130 hn         1 FRC       0.481133
     30 H13          1.6060     0.0040    -2.0770 h1         1 FRC       0.101700
     31 H14          3.6800     1.2790    -0.2560 h1         1 FRC       0.040700
     32 HO           4.6390     1.8970    -2.1890 ho         1 FRC       0.429000
     33 H181         3.6470    -1.2900    -0.2350 hc         1 FRC       0.086700
     34 H182         3.8100    -1.1900    -1.9930 hc         1 FRC       0.086700
     35 H21          1.7420    -2.4710    -2.2880 h1         1 FRC       0.039700
     36 H22          1.4880    -2.5060    -0.5380 h1         1 FRC       0.039700
     37 H91          1.3970     2.3320    -1.9300 hc         1 FRC       0.051367
     38 H92          2.7980     3.3490    -1.5680 hc         1 FRC       0.051367
     39 H93          1.8040     2.7100    -0.2510 hc         1 FRC       0.051367
     40 H15          3.4580    -8.5850    -1.2700 ha         1 FRC       0.140000
     41 H6           1.9330   -10.4710    -1.5300 ha         1 FRC       0.138000
     42 H7          -1.0590    -5.4690    -1.8480 ha         1 FRC       0.133000
     43 H16          0.2500    -3.8410    -2.1410 ha         1 FRC       0.148000
     44 H10          3.8140    -6.1740    -1.2230 ha         1 FRC       0.154000
     45 H11         -0.4760   -10.1090    -1.8710 ha         1 FRC       0.136000
     46 H103        -3.0150     0.1050     3.2740 hn         1 FRC       0.481133
     47 H17         -1.4010    -7.8530    -1.9580 ha         1 FRC       0.133000
@<TRIPOS>BOND
     1     1     2 1
     2     1     5 2
     3     1    26 1
     4     2     3 1
     5     2     9 1
     6     3     4 2
     7     3    27 1
     8     4     5 1
     9     5     6 1
    10     6     7 2
    11     6     8 1
    12     8    28 1
    13     8    29 1
    14     9    10 1
    15     9    12 1
    16     9    30 1
    17    10    11 1
    18    10    14 1
    19    10    31 1
    20    11    32 1
    21    12    13 1
    22    12    33 1
    23    12    34 1
    24    13    15 1
    25    13    35 1
    26    13    36 1
    27    14    37 1
    28    14    38 1
    29    14    39 1
    30    15    24 1
    31    16    17 ar
    32    16    21 ar
    33    16    45 1
    34    17    18 ar
    35    17    47 1
    36    18    19 ar
    37    18    22 ar
    38    19    20 ar
    39    19    25 ar
    40    20    21 ar
    41    20    40 1
    42    21    41 1
    43    22    23 ar
    44    22    42 1
    45    23    24 ar
    46    23    43 1
    47    24    25 ar
    48    25    44 1
    49    46     8 1
@<TRIPOS>SUBSTRUCTURE
     1 FRC         1 TEMP              0 ****  ****    0 ROOT
