@<TRIPOS>MOLECULE
molecule
   44    45     1     0     0
SMALL
bcc


@<TRIPOS>ATOM
      1 N            0.0000     0.0000     0.0000 nz         1 FRF      -0.801600
      2 C1A          1.4680     0.0000     0.0000 c3         1 FRF       0.106500
      3 CT           1.9780     0.0000     1.4420 c3         1 FRF       0.124800
      4 CB           1.9770     1.2510    -0.7190 c3         1 FRF      -0.056100
      5 CG           1.4760     1.2510    -2.1410 ca         1 FRF      -0.137300
      6 CD1          0.2680     1.8490    -2.4470 ca         1 FRF      -0.134500
      7 CD2          2.2260     0.6600    -3.1380 ca         1 FRF      -0.134500
      8 CE1         -0.1920     1.8490    -3.7500 ca         1 FRF      -0.113500
      9 CE2          1.7640     0.6570    -4.4410 ca         1 FRF      -0.113500
     10 CZ           0.5560     1.2540    -4.7480 ca         1 FRF      -0.112000
     11 N1           1.4890    -1.2000     2.1340 n7         1 FRF      -0.845200
     12 C2A          2.0100    -1.1400     3.5050 c3         1 FRF       0.049500
     13 CT1          3.3500    -1.8290     3.5640 c          1 FRF       0.858600
     14 O            3.6190    -2.8440     2.7300 o          1 FRF      -0.817800
     15 CB1          1.0360    -1.8400     4.4530 c3         1 FRF      -0.017100
     16 CG1         -0.3030    -1.1520     4.3950 ca         1 FRF      -0.051300
     17 CD3         -1.2540    -1.5670     3.4810 ca         1 FRF      -0.133500
     18 CD4         -0.5830    -0.1100     5.2570 ca         1 FRF      -0.133500
     19 CE3         -2.4830    -0.9360     3.4270 ca         1 FRF      -0.143500
     20 CE4         -1.8090     0.5240     5.2010 ca         1 FRF      -0.143500
     21 CZ1         -2.7600     0.1090     4.2870 ca         1 FRF      -0.149000
     22 OXT          4.1810    -1.4660     4.3620 o          1 FRF      -0.817800
     23 HN1         -0.3340    -0.7660     0.5510 hn         1 FRF       0.451800
     24 HN2         -0.3340     0.8600     0.3880 hn         1 FRF       0.451800
     25 H1A          1.8300    -0.8840    -0.5110 hx         1 FRF       0.117700
     26 HTC1         3.0610     0.0010     1.4420 h1         1 FRF       0.074700
     27 HTC2         1.6160     0.8840     1.9530 h1         1 FRF       0.074700
     28 HBC1         3.0610     1.2520    -0.7190 hc         1 FRF       0.086700
     29 HBC2         1.6150     2.1340    -0.2080 hc         1 FRF       0.086700
     30 HD1         -0.3190     2.3160    -1.6650 ha         1 FRF       0.132500
     31 HD2          3.1730     0.1920    -2.8980 ha         1 FRF       0.132500
     32 HE1         -1.1390     2.3180    -3.9890 ha         1 FRF       0.144500
     33 HE2          2.3520     0.1920    -5.2230 ha         1 FRF       0.144500
     34 HZ           0.1940     1.2530    -5.7690 ha         1 FRF       0.145000
     35 H1           1.8440    -2.0170     1.6770 hn         1 FRF       0.393800
     36 H2A          2.1230    -0.1050     3.8030 h1         1 FRF       0.051700
     37 HB11         0.9230    -2.8760     4.1550 hc         1 FRF       0.070200
     38 HB12         1.4210    -1.7960     5.4650 hc         1 FRF       0.070200
     39 HD3         -1.0360    -2.3860     2.8070 ha         1 FRF       0.134500
     40 HD4          0.1620     0.2150     5.9730 ha         1 FRF       0.134500
     41 HE3         -3.2280    -1.2610     2.7110 ha         1 FRF       0.120500
     42 HE4         -2.0280     1.3430     5.8770 ha         1 FRF       0.120500
     43 HZ1         -3.7230     0.6050     4.2440 ha         1 FRF       0.122000
     44 HN3         -0.3340    -0.1100    -0.9370 hn         1 FRF       0.451800
@<TRIPOS>BOND
     1     1     2 1
     2     1    23 1
     3     1    24 1
     4     2     3 1
     5     2     4 1
     6     2    25 1
     7     3    11 1
     8     3    26 1
     9     3    27 1
    10     4     5 1
    11     4    28 1
    12     4    29 1
    13     5     6 ar
    14     5     7 ar
    15     6     8 ar
    16     6    30 1
    17     7     9 ar
    18     7    31 1
    19     8    10 ar
    20     8    32 1
    21     9    10 ar
    22     9    33 1
    23    10    34 1
    24    11    12 1
    25    11    35 1
    26    12    13 1
    27    12    15 1
    28    12    36 1
    29    13    14 1
    30    13    22 1
    31    15    16 1
    32    15    37 1
    33    15    38 1
    34    16    17 ar
    35    16    18 ar
    36    17    19 ar
    37    17    39 1
    38    18    20 ar
    39    18    40 1
    40    19    21 ar
    41    19    41 1
    42    20    21 ar
    43    20    42 1
    44    21    43 1
    45    44     1 1
@<TRIPOS>SUBSTRUCTURE
     1 FRF         1 TEMP              0 ****  ****    0 ROOT
