@<TRIPOS>MOLECULE
FRF
   44    45     1     0     0
SMALL
bcc


@<TRIPOS>ATOM
      1 N            0.0000     0.0000     0.0000 nz         1 FRF       0.051400
      2 C1A          1.4680     0.0000     0.0000 c3         1 FRF      -0.071500
      3 CT           1.9780     0.0000     1.4420 c3         1 FRF       0.124800
      4 CB           1.9770     1.2510    -0.7190 c3         1 FRF       0.027900
      5 CG           1.4760     1.2510    -2.1410 ca         1 FRF      -0.158300
      6 CD1          0.2680     1.8490    -2.4470 ca         1 FRF      -0.103500
      7 CD2          2.2260     0.6600    -3.1380 ca         1 FRF      -0.103500
      8 CE1         -0.1920     1.8490    -3.7500 ca         1 FRF      -0.082000
      9 CE2          1.7640     0.6570    -4.4410 ca         1 FRF      -0.082000
     10 CZ           0.5560     1.2540    -4.7480 ca         1 FRF      -0.079000
     11 N1           1.4890    -1.2000     2.1340 n7         1 FRF      -0.651200
     12 C2A          2.0100    -1.1400     3.5050 c3         1 FRF       0.012500
     13 CT1          3.3500    -1.8290     3.5640 c          1 FRF       0.944600
     14 O            3.6190    -2.8440     2.7300 o          1 FRF      -0.858800
     15 CB1          1.0360    -1.8400     4.4530 c3         1 FRF       0.043900
     16 CG1         -0.3030    -1.1520     4.3950 ca         1 FRF      -0.057300
     17 CD3         -1.2540    -1.5670     3.4810 ca         1 FRF      -0.108500
     18 CD4         -0.5830    -0.1100     5.2570 ca         1 FRF      -0.108500
     19 CE3         -2.4830    -0.9360     3.4270 ca         1 FRF      -0.117500
     20 CE4         -1.8090     0.5240     5.2010 ca         1 FRF      -0.117500
     21 CZ1         -2.7600     0.1090     4.2870 ca         1 FRF      -0.124000
     22 OXT          4.1810    -1.4660     4.3620 o          1 FRF      -0.858800
     23 HN1         -0.3340    -0.7660     0.5510 hn         1 FRF       0.227467
     24 HN2         -0.3340     0.8600     0.3880 hn         1 FRF       0.227467
     25 H1A          1.8300    -0.8840    -0.5110 hx         1 FRF       0.095700
     26 HTC1         3.0610     0.0010     1.4420 h1         1 FRF       0.047200
     27 HTC2         1.6160     0.8840     1.9530 h1         1 FRF       0.047200
     28 HBC1         3.0610     1.2520    -0.7190 hc         1 FRF       0.052700
     29 HBC2         1.6150     2.1340    -0.2080 hc         1 FRF       0.052700
     30 HD1         -0.3190     2.3160    -1.6650 ha         1 FRF       0.108000
     31 HD2          3.1730     0.1920    -2.8980 ha         1 FRF       0.108000
     32 HE1         -1.1390     2.3180    -3.9890 ha         1 FRF       0.114500
     33 HE2          2.3520     0.1920    -5.2230 ha         1 FRF       0.114500
     34 HZ           0.1940     1.2530    -5.7690 ha         1 FRF       0.115000
     35 H1           1.8440    -2.0170     1.6770 hn         1 FRF       0.313800
     36 H2A          2.1230    -0.1050     3.8030 h1         1 FRF       0.030700
     37 HB11         0.9230    -2.8760     4.1550 hc         1 FRF       0.038700
     38 HB12         1.4210    -1.7960     5.4650 hc         1 FRF       0.038700
     39 HD3         -1.0360    -2.3860     2.8070 ha         1 FRF       0.112000
     40 HD4          0.1620     0.2150     5.9730 ha         1 FRF       0.112000
     41 HE3         -3.2280    -1.2610     2.7110 ha         1 FRF       0.097000
     42 HE4         -2.0280     1.3430     5.8770 ha         1 FRF       0.097000
     43 HZ1         -3.7230     0.6050     4.2440 ha         1 FRF       0.099000
     44 HN3         -0.3340    -0.1100    -0.9370 hn         1 FRF       0.227467
@<TRIPOS>BOND
     1     1     2 1   
     2     1    23 1   
     3     1    24 1   
     4     1    44 1   
     5     2     3 1   
     6     2     4 1   
     7     2    25 1   
     8     3    11 1   
     9     3    26 1   
    10     3    27 1   
    11     4     5 1   
    12     4    28 1   
    13     4    29 1   
    14     5     6 ar  
    15     5     7 ar  
    16     6     8 ar  
    17     6    30 1   
    18     7     9 ar  
    19     7    31 1   
    20     8    10 ar  
    21     8    32 1   
    22     9    10 ar  
    23     9    33 1   
    24    10    34 1   
    25    11    12 1   
    26    11    35 1   
    27    12    13 1   
    28    12    15 1   
    29    12    36 1   
    30    13    14 1   
    31    13    22 1   
    32    15    16 1   
    33    15    37 1   
    34    15    38 1   
    35    16    17 ar  
    36    16    18 ar  
    37    17    19 ar  
    38    17    39 1   
    39    18    20 ar  
    40    18    40 1   
    41    19    21 ar  
    42    19    41 1   
    43    20    21 ar  
    44    20    42 1   
    45    21    43 1   
@<TRIPOS>SUBSTRUCTURE
     1 FRF         1 TEMP              0 ****  ****    0 ROOT
