@<TRIPOS>MOLECULE
FRG
   64    67     1     0     0
SMALL
bcc


@<TRIPOS>ATOM
      1 N33          0.0000     0.0000     0.0000 n2         1 FRG      -0.073000
      2 C31          1.3030     0.0000     0.0000 c2         1 FRG      -0.321000
      3 N32          1.9920     0.0000     1.1900 nz         1 FRG       0.767000
      4 N29          1.9900    -0.0010    -1.1910 n3         1 FRG       0.111000
      5 C30          1.2730    -0.1190    -2.4680 c3         1 FRG      -0.228000
      6 C28          3.4550     0.1170    -1.2110 c3         1 FRG      -0.137000
      7 C27          4.0320    -1.0470    -2.0230 c3         1 FRG      -0.063000
      8 C26          3.3830    -1.0680    -3.4090 c3         1 FRG      -0.135000
      9 C24          1.8750    -1.2800    -3.2670 c3         1 FRG      -0.011000
     10 C23          1.2320    -1.3330    -4.6540 c3         1 FRG      -0.231000
     11 C22         -0.2310    -1.6620    -4.5170 c3         1 FRG       0.314000
     12 O25         -0.7150    -1.8370    -3.4190 o          1 FRG      -0.452000
     13 N21         -1.0050    -1.7620    -5.6170 n7         1 FRG       0.005000
     14 C16         -2.4280    -2.0820    -5.4850 c3         1 FRG      -0.034000
     15 C17         -2.6020    -3.5760    -5.4030 c2         1 FRG       0.357000
     16 O19         -1.6360    -4.3010    -5.4510 o          1 FRG      -0.392000
     17 O18         -3.8300    -4.1040    -5.2770 os         1 FRG      -0.256000
     18 C20         -3.9970    -5.5440    -5.1980 c3         1 FRG       0.077000
     19 C15         -3.1870    -1.5460    -6.7000 c3         1 FRG      -0.132000
     20 C12         -3.1160    -0.0410    -6.7130 ca         1 FRG      -0.079000
     21 C13         -2.0770     0.5940    -7.3700 ca         1 FRG      -0.107000
     22 C14         -2.0050     1.9720    -7.3870 ca         1 FRG      -0.084500
     23 C11         -4.0940     0.7000    -6.0720 ca         1 FRG      -0.107000
     24 C10         -4.0320     2.0780    -6.0760 ca         1 FRG      -0.084500
     25 C9          -2.9850     2.7260    -6.7370 ca         1 FRG       0.075000
     26 C8          -2.9170     4.1560    -6.7480 c1         1 FRG      -0.148000
     27 C7          -2.8790     5.3300    -6.7480 c1         1 FRG      -0.120000
     28 C4          -2.3970     6.8330    -6.9870 ca         1 FRG       0.129000
     29 C5          -1.3560     7.1590    -7.5580 ca         1 FRG      -0.142500
     30 C6          -1.2990     8.5190    -7.5650 ca         1 FRG      -0.094000
     31 C3          -3.6190     7.6030    -6.8930 ca         1 FRG      -0.142500
     32 C2          -3.6980     8.9440    -7.6340 ca         1 FRG      -0.094000
     33 C1          -2.2550     9.2860    -7.5960 ca         1 FRG      -0.106000
     34 H33         -0.5010     0.0000     0.8660 hn         1 FRG       0.098000
     35 H321         2.2940    -0.9310     1.4010 hn         1 FRG       0.056333
     36 H322         2.7890     0.6010     1.1150 hn         1 FRG       0.056333
     37 H301         0.5420    -0.9140    -2.3840 h1         1 FRG       0.146500
     38 H302         0.7600     0.8140    -2.6670 h1         1 FRG       0.146500
     39 H281         3.7250     1.1350    -0.9580 h1         1 FRG       0.064500
     40 H282         3.8680    -0.5540    -0.4680 h1         1 FRG       0.064500
     41 H271         5.1060    -0.9260    -2.0900 hc         1 FRG       0.067000
     42 H272         3.8110    -1.9740    -1.5070 hc         1 FRG       0.067000
     43 H261         3.6960    -0.1840    -3.9520 hc         1 FRG       0.076500
     44 H262         3.7250    -1.9490    -3.9390 hc         1 FRG       0.076500
     45 H24          1.6910    -2.2100    -2.7420 hc         1 FRG       0.096000
     46 H231         1.9700    -1.0740    -5.4040 hc         1 FRG       0.153000
     47 H232         0.4100    -0.6290    -4.6980 DU         1 FRG       0.068000
     48 H21         -0.5940    -1.6850    -6.5260 hn         1 FRG       0.104000
     49 H16         -2.8190    -1.6230    -4.5840 h1         1 FRG       0.120000
     50 H201        -4.8070    -5.7760    -4.5180 h1         1 FRG       0.046000
     51 H202        -3.0810    -5.9940    -4.8370 h1         1 FRG       0.046000
     52 H203        -4.2290    -5.9350    -6.1820 h1         1 FRG       0.046000
     53 H151        -3.8920    -2.2930    -7.0440 hc         1 FRG       0.101000
     54 H152        -2.4850    -1.3190    -7.4930 hc         1 FRG       0.101000
     55 H13         -1.3840     0.0180    -7.9720 ha         1 FRG       0.112000
     56 H14         -1.1870     2.4650    -7.8970 ha         1 FRG       0.114500
     57 H11         -4.9700     0.2060    -5.6700 ha         1 FRG       0.112000
     58 H10         -4.7950     2.6550    -5.5670 ha         1 FRG       0.114500
     59 H5          -1.1450     6.7880    -8.5540 ha         1 FRG       0.136000
     60 H6          -0.3130     8.9670    -7.5410 ha         1 FRG       0.129500
     61 H3          -4.5640     7.0810    -6.7970 ha         1 FRG       0.136000
     62 H2          -4.5910     9.2040    -8.1900 ha         1 FRG       0.129500
     63 H1          -2.1710    10.2980    -7.9720 ha         1 FRG       0.095000
     64 H323         1.8520     0.8750     1.6560 hn         1 FRG       0.056333
@<TRIPOS>BOND
     1     1     2 1   
     2     1    34 1   
     3     2     3 1   
     4     2     4 1   
     5     3    35 1   
     6     3    36 1   
     7     3    64 1   
     8     4     5 1   
     9     4     6 1   
    10     5     9 1   
    11     5    37 1   
    12     5    38 1   
    13     6     7 1   
    14     6    39 1   
    15     6    40 1   
    16     7     8 1   
    17     7    41 1   
    18     7    42 1   
    19     8     9 1   
    20     8    43 1   
    21     8    44 1   
    22     9    10 1   
    23     9    45 1   
    24    10    11 1   
    25    10    46 1   
    26    10    47 1   
    27    11    12 1   
    28    11    13 1   
    29    11    47 1   
    30    13    14 1   
    31    13    48 1   
    32    14    15 1   
    33    14    19 1   
    34    14    49 1   
    35    15    16 1   
    36    15    17 1   
    37    17    18 1   
    38    18    50 1   
    39    18    51 1   
    40    18    52 1   
    41    19    20 1   
    42    19    53 1   
    43    19    54 1   
    44    20    21 1   
    45    20    23 1   
    46    21    22 1   
    47    21    55 1   
    48    22    25 1   
    49    22    56 1   
    50    23    24 1   
    51    23    57 1   
    52    24    25 1   
    53    24    58 1   
    54    25    26 1   
    55    26    27 1   
    56    27    28 1   
    57    28    29 1   
    58    28    31 1   
    59    29    30 1   
    60    29    59 1   
    61    30    33 1   
    62    30    60 1   
    63    31    32 1   
    64    31    61 1   
    65    32    33 1   
    66    32    62 1   
    67    33    63 1   
@<TRIPOS>SUBSTRUCTURE
     1 FRG         1 TEMP              0 ****  ****    0 ROOT
