@<TRIPOS>MOLECULE
molecule
   64    66     1     0     0
SMALL
bcc


@<TRIPOS>ATOM
      1 N33          0.0000     0.0000     0.0000 n2         1 FRG      -0.768100
      2 C31          1.3030     0.0000     0.0000 c2         1 FRG       0.640100
      3 N32          1.9920     0.0000     1.1900 nz         1 FRG      -0.784600
      4 N29          1.9900    -0.0010    -1.1910 nh         1 FRG      -0.807600
      5 C30          1.2730    -0.1190    -2.4680 c3         1 FRG       0.204800
      6 C28          3.4550     0.1170    -1.2110 c3         1 FRG       0.097800
      7 C27          4.0320    -1.0470    -2.0230 c3         1 FRG      -0.119400
      8 C26          3.3830    -1.0680    -3.4090 c3         1 FRG      -0.050400
      9 C24          1.8750    -1.2800    -3.2670 c3         1 FRG      -0.078700
     10 C23          1.2320    -1.3330    -4.6540 c3         1 FRG      -0.176400
     11 C22         -0.2310    -1.6620    -4.5170 c          1 FRG       0.674100
     12 O25         -0.7150    -1.8370    -3.4190 o          1 FRG      -0.634100
     13 N21         -1.0050    -1.7620    -5.6170 ns         1 FRG      -0.560900
     14 C16         -2.4280    -2.0820    -5.4850 c3         1 FRG       0.063700
     15 C17         -2.6020    -3.5760    -5.4030 c          1 FRG       0.620100
     16 O19         -1.6360    -4.3010    -5.4510 o          1 FRG      -0.538000
     17 O18         -3.8300    -4.1040    -5.2770 os         1 FRG      -0.407900
     18 C20         -3.9970    -5.5440    -5.1980 c3         1 FRG       0.107700
     19 C15         -3.1870    -1.5460    -6.7000 c3         1 FRG      -0.040100
     20 C12         -3.1160    -0.0410    -6.7130 ca         1 FRG      -0.081300
     21 C13         -2.0770     0.5940    -7.3700 ca         1 FRG      -0.116500
     22 C14         -2.0050     1.9720    -7.3870 ca         1 FRG      -0.106500
     23 C11         -4.0940     0.7000    -6.0720 ca         1 FRG      -0.116500
     24 C10         -4.0320     2.0780    -6.0760 ca         1 FRG      -0.106500
     25 C9          -2.9850     2.7260    -6.7370 ca         1 FRG       0.012000
     26 C8          -2.9170     4.1560    -6.7480 cg         1 FRG      -0.120000
     27 C7          -2.8800     5.3300    -6.7500 ch         1 FRG      -0.054000
     28 C4          -2.5630     6.6280    -6.8670 ca         1 FRG      -0.025000
     29 C5          -3.6210     7.8020    -6.4100 ca         1 FRG      -0.097000
     30 C6          -3.4400     8.9590    -6.4720 ca         1 FRG      -0.124000
     31 C3          -1.4790     7.1830    -7.3160 ca         1 FRG      -0.097000
     32 C2          -1.4650     8.6850    -7.3040 ca         1 FRG      -0.124000
     33 C1          -2.4320     9.5820    -6.8870 ca         1 FRG      -0.098000
     34 H33         -0.1160    -0.1130    -0.9880 hn         1 FRG       0.452400
     35 H321         2.4050    -0.9080     1.2640 hn         1 FRG       0.491800
     36 H322         1.2880    -0.1080     1.8930 hn         1 FRG       0.491800
     37 H301         1.4990     0.4810    -3.3410 h1         1 FRG       0.088700
     38 H302         0.3110     0.0530    -2.0000 h1         1 FRG       0.088700
     39 H281         3.4930     0.6600    -0.2740 h1         1 FRG       0.096200
     40 H282         4.0960     0.5090    -1.9910 h1         1 FRG       0.096200
     41 H271         3.7040    -2.0410    -1.7410 hc         1 FRG       0.062200
     42 H272         5.0090    -1.2450    -1.5990 hc         1 FRG       0.062200
     43 H261         3.6800    -1.9810    -3.9100 hc         1 FRG       0.073200
     44 H262         3.5950    -0.0950    -3.8350 hc         1 FRG       0.073200
     45 H24          1.6910    -2.2100    -2.7420 hc         1 FRG       0.083700
     46 H231         1.9210    -1.5810    -5.4520 hc         1 FRG       0.087700
     47 H232         0.7180    -0.3800    -4.6970 hc         1 FRG       0.087700
     48 H21         -0.5280    -1.6930    -6.4940 hn         1 FRG       0.328500
     49 H16         -2.8190    -1.6230    -4.5840 h1         1 FRG       0.106700
     50 H201        -3.4170    -6.1730    -5.8610 h1         1 FRG       0.054033
     51 H202        -3.5650    -5.8890    -4.2670 h1         1 FRG       0.054033
     52 H203        -4.8890    -6.0390    -4.8340 h1         1 FRG       0.054033
     53 H151        -2.6540    -2.2070    -7.3730 hc         1 FRG       0.087700
     54 H152        -4.2330    -1.6460    -6.4360 hc         1 FRG       0.087700
     55 H13         -1.1990     0.0590    -7.7110 ha         1 FRG       0.133000
     56 H14         -1.2770     2.6650    -7.7910 ha         1 FRG       0.147500
     57 H11         -5.0080     0.1800    -5.8120 ha         1 FRG       0.133000
     58 H10         -4.7260     2.7380    -5.5690 ha         1 FRG       0.147500
     59 H5          -4.5950     7.3410    -6.2970 ha         1 FRG       0.131500
     60 H6          -4.3480     9.4650    -6.1650 ha         1 FRG       0.115500
     61 H3          -0.8910     6.5640    -7.9820 ha         1 FRG       0.131500
     62 H2          -0.7860     9.1140    -8.0300 ha         1 FRG       0.115500
     63 H1          -2.2550    10.5960    -7.2270 ha         1 FRG       0.156000
     64 H323         2.1510     0.9350     1.5100 hn         1 FRG       0.491800
@<TRIPOS>BOND
     1     1     2 2
     2     1    34 1
     3     2     3 1
     4     2     4 1
     5     3    35 1
     6     3    36 1
     7     4     5 1
     8     4     6 1
     9     5     9 1
    10     5    37 1
    11     5    38 1
    12     6     7 1
    13     6    39 1
    14     6    40 1
    15     7     8 1
    16     7    41 1
    17     7    42 1
    18     8     9 1
    19     8    43 1
    20     8    44 1
    21     9    10 1
    22     9    45 1
    23    10    11 1
    24    10    46 1
    25    10    47 1
    26    11    12 2
    27    11    13 1
    28    13    14 1
    29    13    48 1
    30    14    15 1
    31    14    19 1
    32    14    49 1
    33    15    16 2
    34    15    17 1
    35    17    18 1
    36    18    50 1
    37    18    51 1
    38    18    52 1
    39    19    20 1
    40    19    53 1
    41    19    54 1
    42    20    21 ar
    43    20    23 ar
    44    21    22 ar
    45    21    55 1
    46    22    25 ar
    47    22    56 1
    48    23    24 ar
    49    23    57 1
    50    24    25 ar
    51    24    58 1
    52    25    26 1
    53    26    27 3
    54    27    28 1
    55    28    29 ar
    56    28    31 ar
    57    29    30 ar
    58    29    59 1
    59    30    33 ar
    60    30    60 1
    61    31    32 ar
    62    31    61 1
    63    32    33 ar
    64    32    62 1
    65    33    63 1
    66    64     3 1
@<TRIPOS>SUBSTRUCTURE
     1 FRG         1 TEMP              0 ****  ****    0 ROOT
