@<TRIPOS>MOLECULE
FRH
   81    84     1     0     0
SMALL
bcc


@<TRIPOS>ATOM
      1 O45         0.2490   -1.0480   -0.0550 o         1 FRH     -0.621100
      2 C26         1.1870   -0.2310    0.0470 c         1 FRH      0.611100
      3 C25         2.1040   -0.1990    1.2980 c3        1 FRH      0.127500
      4 C32         1.8520    1.1050    2.0670 c3        1 FRH     -0.079400
      5 C36         2.9440    1.4130    3.0830 c3        1 FRH     -0.065700
      6 C38         4.2130    1.8930    2.4080 c3        1 FRH     -0.094100
      7 C37         2.4480    2.4650    4.0570 c3        1 FRH     -0.094100
      8 N5          2.0470   -1.4030    2.0970 nh        1 FRH     -0.825200
      9 C17         0.9630   -1.5120    3.0810 c2        1 FRH      0.729100
     10 N4          1.4360   -1.8770    4.3740 nh        1 FRH     -0.880800
     11 N1         -0.3190   -1.3920    2.8730 n2        1 FRH     -0.861100
     12 N2          1.4290    0.7080   -0.9410 n         1 FRH     -0.532900
     13 C28         0.7980    0.6170   -2.2280 c3        1 FRH      0.010000
     14 C14         1.7930    0.4200   -3.3840 c         1 FRH      0.631100
     15 O44         3.0240    0.4910   -3.1790 o         1 FRH     -0.619100
     16 N6          1.3030    0.1070   -4.6430 n         1 FRH     -0.452800
     17 C22        -0.0880    0.2590   -5.0080 c3        1 FRH      0.081000
     18 C15        -0.3480    1.3840   -6.0130 c3        1 FRH     -0.098900
     19 C19         0.5560    1.2390   -7.2330 c3        1 FRH      0.010600
     20 C27         2.0130    1.1610   -6.7950 c3        1 FRH     -0.098900
     21 C29         2.2120    0.0420   -5.7720 c3        1 FRH      0.081000
     22 C23         0.3430    2.3680   -8.1710 cc        1 FRH     -0.118600
     23 C11         0.9660    3.6240   -8.2150 cd        1 FRH     -0.261300
     24 C13         0.3430    4.3190   -9.3240 cd        1 FRH      0.367800
     25 N7         -0.5960    3.5120   -9.9060 nc        1 FRH     -0.491800
     26 N3         -0.6010    2.3610   -9.2220 na        1 FRH      0.089400
     27 C34        -1.4480    1.2400   -9.5440 c3        1 FRH      0.040600
     28 C24         0.6720    5.6560   -9.7930 ca        1 FRH     -0.157500
     29 C10         0.9790    5.8460  -11.1460 ca        1 FRH     -0.060000
     30 C21         0.6970    6.7630   -8.9280 ca        1 FRH      0.065400
     31 CL8         0.2770    6.5690   -7.2890 cl        1 FRH     -0.084400
     32 C16         1.0530    8.0350   -9.3980 ca        1 FRH     -0.028600
     33 CL9         1.0880    9.3550   -8.3330 cl        1 FRH     -0.051400
     34 C30         1.3770    8.2030  -10.7670 ca        1 FRH      0.174100
     35 C33         1.3300    7.0980  -11.6320 ca        1 FRH     -0.214000
     36 O43         1.7180    9.4690  -11.1630 os        1 FRH     -0.301900
     37 C35         2.1400    9.6090  -12.5410 c3        1 FRH      0.120100
     38 C18         2.5110   11.0160  -12.7390 cc        1 FRH      0.137000
     39 C39         3.4250   11.8760  -12.1550 cd        1 FRH     -0.211300
     40 O42         1.8250   11.6750  -13.7710 os        1 FRH     -0.327800
     41 C31         2.3410   12.9630  -13.8350 cc        1 FRH      0.270200
     42 C12         3.3160   13.1270  -12.8550 cd        1 FRH     -0.315300
     43 C20         1.8050   13.8950  -14.9110 c         1 FRH      0.827100
     44 O40         1.0610   13.4120  -15.8000 o         1 FRH     -0.799800
     45 O41         2.1720   15.0970  -14.8250 o         1 FRH     -0.799800
     46 H25         3.1720   -0.1760    0.9090 h1        1 FRH      0.083700
     47 H321        1.7960    1.9550    1.3370 hc        1 FRH      0.061200
     48 H322        0.8610    1.0540    2.5900 hc        1 FRH      0.061200
     49 H36         3.1830    0.4780    3.6630 hc        1 FRH      0.055700
     50 H381        4.6280    1.1050    1.7350 hc        1 FRH      0.036700
     51 H382        4.9860    2.1390    3.1760 hc        1 FRH      0.036700
     52 H383        4.0150    2.8100    1.8020 hc        1 FRH      0.036700
     53 H371        3.2440    2.7060    4.8020 hc        1 FRH      0.036700
     54 H372        1.5470    2.0990    4.6050 hc        1 FRH      0.036700
     55 H373        2.1760    3.4030    3.5150 hc        1 FRH      0.036700
     56 HN5         2.0510   -2.2200    1.5130 hn        1 FRH      0.400800
     57 HN41        2.3490   -1.5380    4.5840 hn        1 FRH      0.398800
     58 HN42        0.7770   -1.7120    5.1040 hn        1 FRH      0.398800
     59 HN1        -0.6040   -1.2490    1.9290 hn        1 FRH      0.424400
     60 HN2         2.3110    1.1750   -0.9310 hn        1 FRH      0.323500
     61 H281        0.0520   -0.2300   -2.2170 h1        1 FRH      0.088700
     62 H282        0.2510    1.5870   -2.4160 h1        1 FRH      0.088700
     63 H221       -0.7260    0.4360   -4.1000 h1        1 FRH      0.060200
     64 H222       -0.4160   -0.7180   -5.4700 h1        1 FRH      0.060200
     65 H151       -0.1750    2.3820   -5.5340 hc        1 FRH      0.061450
     66 H152       -1.4230    1.3380   -6.3270 hc        1 FRH      0.061450
     67 H19         0.2960    0.2670   -7.7480 hc        1 FRH      0.051700
     68 H271        2.3320    2.1430   -6.3590 hc        1 FRH      0.061450
     69 H272        2.6660    0.9540   -7.6810 hc        1 FRH      0.061450
     70 H291        2.0410   -0.9520   -6.2780 h1        1 FRH      0.060200
     71 H292        3.2760    0.0700   -5.3990 h1        1 FRH      0.060200
     72 H11         1.7430    4.0120   -7.5670 ha        1 FRH      0.171000
     73 H341       -2.2050    1.5260  -10.3210 h1        1 FRH      0.055033
     74 H342       -0.8190    0.3960   -9.9350 h1        1 FRH      0.055033
     75 H343       -1.9780    0.9050   -8.6130 h1        1 FRH      0.055033
     76 H10         0.9400    4.9870  -11.8340 ha        1 FRH      0.145000
     77 H33         1.5620    7.2140  -12.7000 ha        1 FRH      0.153000
     78 H351        1.2900    9.3230  -13.2170 h1        1 FRH      0.052700
     79 H352        3.0240    8.9370  -12.7100 h1        1 FRH      0.052700
     80 H39         4.0900   11.6580  -11.3260 ha        1 FRH      0.137000
     81 H12         3.8810   14.0330  -12.6620 ha        1 FRH      0.159000
@<TRIPOS>BOND
     1    1    2 2   
     2    2    3 1   
     3    2   12 1   
     4    3    4 1   
     5    3    8 1   
     6    3   46 1   
     7    4    5 1   
     8    4   47 1   
     9    4   48 1   
    10    5    6 1   
    11    5    7 1   
    12    5   49 1   
    13    6   50 1   
    14    6   51 1   
    15    6   52 1   
    16    7   53 1   
    17    7   54 1   
    18    7   55 1   
    19    8    9 1   
    20    8   56 1   
    21    9   10 1   
    22    9   11 2   
    23   10   57 1   
    24   10   58 1   
    25   11   59 1   
    26   12   13 1   
    27   12   60 1   
    28   13   14 1   
    29   13   61 1   
    30   13   62 1   
    31   14   15 2   
    32   14   16 1   
    33   16   17 1   
    34   16   21 1   
    35   17   18 1   
    36   17   63 1   
    37   17   64 1   
    38   18   19 1   
    39   18   65 1   
    40   18   66 1   
    41   19   20 1   
    42   19   22 1   
    43   19   67 1   
    44   20   21 1   
    45   20   68 1   
    46   20   69 1   
    47   21   70 1   
    48   21   71 1   
    49   22   23 2   
    50   22   26 1   
    51   23   24 1   
    52   23   72 1   
    53   24   25 2   
    54   24   28 1   
    55   25   26 1   
    56   26   27 1   
    57   27   73 1   
    58   27   74 1   
    59   27   75 1   
    60   28   29 ar  
    61   28   30 ar  
    62   29   35 ar  
    63   29   76 1   
    64   30   31 1   
    65   30   32 ar  
    66   32   33 1   
    67   32   34 ar  
    68   34   35 ar  
    69   34   36 1   
    70   35   77 1   
    71   36   37 1   
    72   37   38 1   
    73   37   78 1   
    74   37   79 1   
    75   38   39 2   
    76   38   40 1   
    77   39   42 1   
    78   39   80 1   
    79   40   41 1   
    80   41   42 2   
    81   41   43 1   
    82   42   81 1   
    83   43   44 1   
    84   43   45 1   
@<TRIPOS>SUBSTRUCTURE
     1 FRH         1 TEMP              0 ****  ****    0 ROOT
