@<TRIPOS>MOLECULE
FRI
   90    93     1     0     0
SMALL
bcc


@<TRIPOS>ATOM
      1 O47          0.0000     0.0000     0.0000 o          1 FRI      -0.656100
      2 C30          1.2120     0.0000     0.0000 c          1 FRI       0.577100
      3 C29          1.9660     0.0000     1.3050 c3         1 FRI      -0.040000
      4 N3           1.0150     0.0010     2.4180 ns         1 FRI      -0.118900
      5 C27          1.4630     0.0010     3.6880 c          1 FRI       0.533100
      6 O46          2.6560    -0.0000     3.9100 o          1 FRI      -0.687100
      7 C26          0.4850     0.0000     4.8340 c3         1 FRI       0.064500
      8 C41          0.1540    -1.4420     5.2210 c3         1 FRI      -0.069400
      9 C32         -0.9290    -1.4440     6.3030 c3         1 FRI      -0.050700
     10 C37         -2.2280    -0.8810     5.7260 c3         1 FRI       0.003900
     11 C36         -1.1640    -2.8760     6.7870 c3         1 FRI       0.003900
     12 N7           1.0770     0.6900     5.9820 nu         1 FRI      -0.468200
     13 C24          2.1800     0.1610     6.6090 c2         1 FRI       0.243100
     14 N5           2.7000    -0.9550     6.1790 n2         1 FRI      -0.611100
     15 N4           2.7360     0.8090     7.6870 nz         1 FRI       0.198400
     16 N2           1.8870    -0.0000    -1.1670 n          1 FRI      -0.125800
     17 C31          3.3550     0.0060    -1.1840 c3         1 FRI       0.041500
     18 C39          3.8380    -1.1660    -2.0500 c3         1 FRI      -0.041400
     19 C19          3.1950    -1.0700    -3.4350 c3         1 FRI       0.043600
     20 C21          1.6740    -1.1660    -3.3000 c3         1 FRI      -0.041400
     21 C43          1.1650     0.0010    -2.4470 c3         1 FRI       0.041500
     22 C23          3.6950    -2.1980    -4.3010 cc         1 FRI      -0.246600
     23 N8           4.7810    -2.1620    -5.1020 na         1 FRI       0.500400
     24 C38          5.6850    -1.0210    -5.2740 c3         1 FRI       0.018600
     25 N6           4.9010    -3.4070    -5.7300 nc         1 FRI      -0.631800
     26 C13          3.1300    -3.4190    -4.4180 cd         1 FRI      -0.319300
     27 C14          3.9050    -4.1670    -5.3250 cd         1 FRI       0.432800
     28 C11          3.6480    -5.5660    -5.7460 ca         1 FRI      -0.146500
     29 C15          3.8410    -5.9420    -7.0740 ca         1 FRI      -0.016000
     30 C17          3.6010    -7.2430    -7.4640 ca         1 FRI      -0.220000
     31 C20          3.1650    -8.1790    -6.5360 ca         1 FRI       0.157100
     32 C33          2.9720    -7.8080    -5.2120 ca         1 FRI      -0.090600
     33 C34          3.2150    -6.5090    -4.8140 ca         1 FRI       0.012400
     34 Cl10         2.9730    -6.0450    -3.1590 cl         1 FRI      -0.011400
     35 Cl9          2.4280    -8.9830    -4.0540 cl         1 FRI       0.015600
     36 O45          2.9300    -9.4590    -6.9250 os         1 FRI      -0.262900
     37 C40          3.2160    -9.5270    -8.3220 c3         1 FRI       0.238700
     38 C22          2.9730   -10.9280    -8.8190 ca         1 FRI      -0.138300
     39 C28          4.0010   -11.8540    -8.8040 ca         1 FRI      -0.055500
     40 C25          3.7800   -13.1400    -9.2530 ca         1 FRI      -0.120000
     41 C35          2.5270   -13.5030    -9.7290 ca         1 FRI      -0.072400
     42 C18          1.4990   -12.5700    -9.7470 ca         1 FRI      -0.120000
     43 C16          1.7250   -11.2870    -9.2930 ca         1 FRI      -0.055500
     44 N1           2.3020   -14.8040   -10.1910 ns         1 FRI      -0.043100
     45 C12          1.4600   -15.0180   -11.2210 c          1 FRI       0.559100
     46 O44          0.9770   -14.0770   -11.8140 o          1 FRI      -0.630100
     47 C42          1.1180   -16.4270   -11.6350 c3         1 FRI      -0.068100
     48 H291         2.5890     0.8840     1.3620 h1         1 FRI       0.050200
     49 H292         2.5890    -0.8850     1.3630 h1         1 FRI       0.050200
     50 HN3          0.0310     0.0240     2.2350 hn         1 FRI       0.209500
     51 H26         -0.4220     0.5110     4.5340 h1         1 FRI       0.077700
     52 H411        -0.2050    -1.9770     4.3500 hc         1 FRI       0.048200
     53 H412         1.0450    -1.9280     5.6010 hc         1 FRI       0.048200
     54 H32         -0.6080    -0.8300     7.1360 hc         1 FRI       0.007700
     55 H371        -2.1930     0.2020     5.7450 hc         1 FRI       0.012867
     56 H372        -3.0660    -1.2250     6.3200 hc         1 FRI       0.012867
     57 H373        -2.3460    -1.2210     4.7040 hc         1 FRI       0.012867
     58 H361        -1.6260    -3.4540     5.9960 hc         1 FRI       0.012867
     59 H362        -0.2160    -3.3260     7.0570 hc         1 FRI       0.012867
     60 H363        -1.8160    -2.8630     7.6520 hc         1 FRI       0.012867
     61 HN7          0.7300     1.5880     6.2580 hn         1 FRI       0.296800
     62 HN5          2.2970    -1.4280     5.3950 hn         1 FRI       0.422400
     63 HN41         2.0730     0.8400     8.4360 hn         1 FRI       0.218467
     64 HN42         2.9860     1.7420     7.4230 hn         1 FRI       0.218467
     65 H311         3.7090     0.9390    -1.6050 h1         1 FRI       0.034700
     66 H312         3.7300    -0.1100    -0.1740 h1         1 FRI       0.034700
     67 H391         3.5520    -2.1010    -1.5840 hc         1 FRI       0.035200
     68 H392         4.9160    -1.1210    -2.1490 hc         1 FRI       0.035200
     69 H19          3.4550    -0.1200    -3.8860 hc         1 FRI       0.030700
     70 H211         1.4130    -2.1020    -2.8220 hc         1 FRI       0.035200
     71 H212         1.2210    -1.1170    -4.2830 hc         1 FRI       0.035200
     72 H431         0.1040    -0.1180    -2.2660 h1         1 FRI       0.034700
     73 H432         1.3480     0.9350    -2.9650 h1         1 FRI       0.034700
     74 H381         6.4640    -1.2810    -5.9810 h1         1 FRI       0.023033
     75 H382         5.1270    -0.1710    -5.6480 h1         1 FRI       0.023033
     76 H383         6.1330    -0.7680    -4.3210 h1         1 FRI       0.023033
     77 H13          2.2390    -3.7610    -3.9060 ha         1 FRI       0.150000
     78 H15          4.1810    -5.2130    -7.7990 ha         1 FRI       0.120000
     79 H17          3.7520    -7.5340    -8.4960 ha         1 FRI       0.143000
     80 H401         2.5720    -8.8380    -8.8560 h1         1 FRI       0.015700
     81 H402         4.2510    -9.2580    -8.4920 h1         1 FRI       0.015700
     82 H28          4.9790   -11.5710    -8.4330 ha         1 FRI       0.107000
     83 H25          4.5850   -13.8650    -9.2400 ha         1 FRI       0.124000
     84 H18          0.5200   -12.8490   -10.1180 ha         1 FRI       0.124000
     85 H16          0.9230   -10.5590    -9.3070 ha         1 FRI       0.107000
     86 HN1          2.7410   -15.5790    -9.7340 hn         1 FRI       0.169500
     87 H421         0.3140   -16.4050   -12.3610 hc         1 FRI       0.025033
     88 H422         1.9900   -16.8950   -12.0760 hc         1 FRI       0.025033
     89 H423         0.8040   -16.9920   -10.7660 hc         1 FRI       0.025033
     90 H43          3.5490     0.3110     7.9920 hn         1 FRI       0.218467
@<TRIPOS>BOND
     1     1     2 2   
     2     2     3 1   
     3     2    16 1   
     4     3     4 1   
     5     3    48 1   
     6     3    49 1   
     7     4     5 1   
     8     4    50 1   
     9     5     6 2   
    10     5     7 1   
    11     7     8 1   
    12     7    12 1   
    13     7    51 1   
    14     8     9 1   
    15     8    52 1   
    16     8    53 1   
    17     9    10 1   
    18     9    11 1   
    19     9    54 1   
    20    10    55 1   
    21    10    56 1   
    22    10    57 1   
    23    11    58 1   
    24    11    59 1   
    25    11    60 1   
    26    12    13 1   
    27    12    61 1   
    28    13    14 2   
    29    13    15 1   
    30    14    62 1   
    31    15    63 1   
    32    15    64 1   
    33    15    90 1   
    34    16    17 1   
    35    16    21 1   
    36    17    18 1   
    37    17    65 1   
    38    17    66 1   
    39    18    19 1   
    40    18    67 1   
    41    18    68 1   
    42    19    20 1   
    43    19    22 1   
    44    19    69 1   
    45    20    21 1   
    46    20    70 1   
    47    20    71 1   
    48    21    72 1   
    49    21    73 1   
    50    22    23 1   
    51    22    26 2   
    52    23    24 1   
    53    23    25 1   
    54    24    74 1   
    55    24    75 1   
    56    24    76 1   
    57    25    27 2   
    58    26    27 1   
    59    26    77 1   
    60    27    28 1   
    61    28    29 ar  
    62    28    33 ar  
    63    29    30 ar  
    64    29    78 1   
    65    30    31 ar  
    66    30    79 1   
    67    31    32 ar  
    68    31    36 1   
    69    32    33 ar  
    70    32    35 1   
    71    33    34 1   
    72    36    37 1   
    73    37    38 1   
    74    37    80 1   
    75    37    81 1   
    76    38    39 ar  
    77    38    43 ar  
    78    39    40 ar  
    79    39    82 1   
    80    40    41 ar  
    81    40    83 1   
    82    41    42 ar  
    83    41    44 1   
    84    42    43 ar  
    85    42    84 1   
    86    43    85 1   
    87    44    45 1   
    88    44    86 1   
    89    45    46 2   
    90    45    47 1   
    91    47    87 1   
    92    47    88 1   
    93    47    89 1   
@<TRIPOS>SUBSTRUCTURE
     1 FRI         1 TEMP              0 ****  ****    0 ROOT
