@<TRIPOS>MOLECULE
FRJ
   60    64     1     0     0
SMALL
bcc


@<TRIPOS>ATOM
      1 O36         0.7180    0.7580   -0.0800 o         1 FRJ     -0.643800
      2 S33         2.0300    0.3270   -0.3100 sy        1 FRJ      1.527200
      3 O35         2.8850    0.2870    0.8160 o         1 FRJ     -0.643800
      4 N34         2.8100    1.3160   -1.3860 nh        1 FRJ     -0.837800
      5 C37         2.3580    1.6850   -2.6410 cc        1 FRJ      0.664300
      6 N38         1.2670    1.1620   -3.2430 nd        1 FRJ     -0.703000
      7 C39         1.0970    1.7610   -4.4770 cd        1 FRJ      0.372200
      8 C40         2.0370    2.7160   -4.8190 cc        1 FRJ     -0.264400
      9 S41         3.1670    2.9050   -3.5950 ss        1 FRJ     -0.126300
     10 C30         2.0280   -1.1650   -1.0500 ca        1 FRJ     -0.437500
     11 C31         3.1170   -2.0380   -0.9100 ca        1 FRJ      0.038000
     12 C32         3.1160   -3.2980   -1.4820 ca        1 FRJ     -0.221500
     13 C29         0.9270   -1.6050   -1.7970 ca        1 FRJ      0.038000
     14 C28         0.8980   -2.8630   -2.3840 ca        1 FRJ     -0.221500
     15 C27         1.9970   -3.7410   -2.2350 ca        1 FRJ      0.254600
     16 N16         2.0050   -5.0160   -2.8010 nh        1 FRJ     -0.762500
     17 S15         0.7750   -5.8870   -3.4620 sy        1 FRJ      1.518200
     18 O17         1.3820   -6.9550   -4.1530 o         1 FRJ     -0.640300
     19 O18        -0.1030   -5.0620   -4.1820 o         1 FRJ     -0.640300
     20 C2         -0.0250   -6.4880   -2.1100 ca        1 FRJ     -0.390500
     21 C1          0.3750   -7.7160   -1.5490 ca        1 FRJ     -0.027000
     22 C3         -1.1070   -5.7880   -1.5600 ca        1 FRJ      0.014000
     23 C6         -1.7320   -6.3540   -0.4620 ca        1 FRJ      0.018100
     24 O7         -2.8140   -5.8120    0.2450 os        1 FRJ     -0.182200
     25 C5         -1.3360   -7.6010    0.1190 ca        1 FRJ     -0.004800
     26 C4         -0.2600   -8.2800   -0.4480 ca        1 FRJ     -0.122000
     27 C9         -2.2330   -7.8110    1.2420 cc        1 FRJ     -0.254400
     28 C8         -3.0810   -6.7070    1.2850 cd        1 FRJ      0.160900
     29 C13        -4.1880   -6.3270    2.1830 c3        1 FRJ     -0.038200
     30 C14        -3.6790   -5.6060    3.4110 c3        1 FRJ     -0.095100
     31 C10        -2.2420   -8.9080    2.2050 c         1 FRJ      0.623900
     32 O12        -2.5720   -8.7200    3.3860 o         1 FRJ     -0.534100
     33 C11        -1.8630  -10.2600    1.7380 ca        1 FRJ     -0.208600
     34 C19        -2.0960  -10.6720    0.4220 ca        1 FRJ     -0.013000
     35 C20        -1.7790  -11.9650    0.0080 ca        1 FRJ     -0.108400
     36 BR26       -2.1340  -12.4340   -1.7700 br        1 FRJ     -0.053600
     37 C21        -1.2080  -12.8650    0.9360 ca        1 FRJ      0.211100
     38 O25        -0.9050  -14.1180    0.4810 oh        1 FRJ     -0.468100
     39 C22        -0.9730  -12.4530    2.2660 ca        1 FRJ     -0.108400
     40 C23        -1.3130  -11.1590    2.6580 ca        1 FRJ     -0.013000
     41 BR24       -0.2190  -13.6070    3.5370 br        1 FRJ     -0.053600
     42 H34         3.6910    1.7120   -1.1430 hn        1 FRJ      0.461800
     43 H39         0.2440    1.4420   -5.0890 h4        1 FRJ      0.049100
     44 H40         2.0600    3.2800   -5.7480 h4        1 FRJ      0.185000
     45 H31         3.9880   -1.7170   -0.3090 ha        1 FRJ      0.163000
     46 H32         3.9900   -3.9540   -1.3470 ha        1 FRJ      0.156500
     47 H29         0.0550   -0.9330   -1.9190 ha        1 FRJ      0.163000
     48 H28         0.0190   -3.1490   -2.9870 ha        1 FRJ      0.156500
     49 H16         2.9040   -5.4510   -2.7580 hn        1 FRJ      0.455800
     50 H1          1.2160   -8.2590   -2.0180 ha        1 FRJ      0.158000
     51 H3         -1.4510   -4.8320   -1.9900 ha        1 FRJ      0.175000
     52 H4          0.0750   -9.2440   -0.0360 ha        1 FRJ      0.157000
     53 H131       -4.7210   -7.2670    2.4970 hc        1 FRJ      0.078200
     54 H132       -4.9140   -5.6740    1.6270 hc        1 FRJ      0.078200
     55 H141       -4.5440   -5.3180    4.0560 hc        1 FRJ      0.053033
     56 H142       -3.1210   -4.6820    3.1270 hc        1 FRJ      0.053033
     57 H143       -3.0010   -6.2740    3.9980 hc        1 FRJ      0.053033
     58 H19        -2.5410   -9.9570   -0.2940 ha        1 FRJ      0.168500
     59 H25        -0.5370  -14.6380    1.2170 ho        1 FRJ      0.442000
     60 H23        -1.1590  -10.8270    3.7000 ha        1 FRJ      0.168500
@<TRIPOS>BOND
     1    1    2 2
     2    2    3 2
     3    2    4 1
     4    2   10 1
     5    4    5 1
     6    4   42 1
     7    5    6 2
     8    5    9 1
     9    6    7 1
    10    7    8 2
    11    7   43 1
    12    8    9 1
    13    8   44 1
    14   10   11 ar
    15   10   13 ar
    16   11   12 ar
    17   11   45 1
    18   12   15 ar
    19   12   46 1
    20   13   14 ar
    21   13   47 1
    22   14   15 ar
    23   14   48 1
    24   15   16 1
    25   16   17 1
    26   16   49 1
    27   17   18 2
    28   17   19 2
    29   17   20 1
    30   20   21 ar
    31   20   22 ar
    32   21   26 ar
    33   21   50 1
    34   22   23 ar
    35   22   51 1
    36   23   24 1
    37   23   25 ar
    38   24   28 1
    39   25   26 ar
    40   25   27 1
    41   26   52 1
    42   27   28 2
    43   27   31 1
    44   28   29 1
    45   29   30 1
    46   29   53 1
    47   29   54 1
    48   30   55 1
    49   30   56 1
    50   30   57 1
    51   31   32 2
    52   31   33 1
    53   33   34 ar
    54   33   40 ar
    55   34   35 ar
    56   34   58 1
    57   35   36 1
    58   35   37 ar
    59   37   38 1
    60   37   39 ar
    61   38   59 1
    62   39   40 ar
    63   39   41 1
    64   40   60 1
@<TRIPOS>SUBSTRUCTURE
     1 FRJ         1 TEMP              0 ****  ****    0 ROOT
