@<TRIPOS>MOLECULE
molecule
   49    51     1     0     0
SMALL
bcc


@<TRIPOS>ATOM
      1 C1           0.0000     0.0000     0.0000 cc         1 FRK       0.634300
      2 S2           1.7870     0.0000     0.0000 ss         1 FRK      -0.320300
      3 C3           2.0120     0.0000     1.7740 cc         1 FRK      -0.060400
      4 C4           0.6870    -0.0000     2.2000 cd         1 FRK       0.455800
      5 N5          -0.2710     0.0060     1.2910 nd         1 FRK      -0.708000
      6 C6           3.2570    -0.0000     2.5660 ca         1 FRK      -0.005000
      7 N7          -0.8740     0.0010    -1.0790 ns         1 FRK      -0.521400
      8 C8          -2.2050     0.0000    -0.8670 c          1 FRK       0.645100
      9 C9          -3.1550     0.0010    -2.0370 c3         1 FRK      -0.154400
     10 O10         -2.6380     0.0010     0.2650 o          1 FRK      -0.524100
     11 C11         -4.5960     0.0010    -1.5250 c3         1 FRK      -0.068400
     12 C12         -5.5600     0.0020    -2.7130 c3         1 FRK      -0.084400
     13 C15         -7.0020     0.0020    -2.2000 c3         1 FRK      -0.082400
     14 C18         -7.9640     0.0020    -3.3890 c3         1 FRK      -0.092100
     15 C21          0.3600    -0.0000     3.6430 ca         1 FRK      -0.139500
     16 C22         -0.7010     0.7700     4.1200 ca         1 FRK      -0.087000
     17 C23         -1.0040     0.7670     5.4650 ca         1 FRK      -0.162000
     18 C24         -0.2540    -0.0020     6.3460 ca         1 FRK       0.110100
     19 C25          0.8020    -0.7700     5.8750 ca         1 FRK      -0.162000
     20 C26          1.1070    -0.7760     4.5290 ca         1 FRK      -0.087000
     21 C31          3.3540     0.7800     3.7210 ca         1 FRK      -0.098500
     22 C32          4.5170     0.7740     4.4600 ca         1 FRK      -0.154000
     23 C33          5.5950    -0.0010     4.0530 ca         1 FRK       0.109100
     24 C34          5.5060    -0.7740     2.9040 ca         1 FRK      -0.154000
     25 C35          4.3450    -0.7760     2.1610 ca         1 FRK      -0.098500
     26 O40         -0.5550    -0.0020     7.6700 oh         1 FRK      -0.525100
     27 O41          6.7430    -0.0000     4.7820 oh         1 FRK      -0.522100
     28 HN7         -0.5160    -0.0260    -2.0130 hn         1 FRK       0.339500
     29 H91         -2.9860    -0.8820    -2.6400 hc         1 FRK       0.061700
     30 H92         -2.9850     0.8860    -2.6380 hc         1 FRK       0.061700
     31 H111        -4.7650    -0.8840    -0.9230 hc         1 FRK       0.061200
     32 H112        -4.7650     0.8850    -0.9220 hc         1 FRK       0.061200
     33 H121        -5.3910    -0.8820    -3.3160 hc         1 FRK       0.039700
     34 H122        -5.3910     0.8870    -3.3140 hc         1 FRK       0.039700
     35 H151        -7.1710    -0.8830    -1.5990 hc         1 FRK       0.043700
     36 H152        -7.1710     0.8860    -1.5980 hc         1 FRK       0.043700
     37 H181        -7.7950     0.8870    -3.9910 hc         1 FRK       0.033367
     38 H182        -7.7950    -0.8820    -3.9910 hc         1 FRK       0.033367
     39 H183        -8.9850     0.0020    -3.0260 hc         1 FRK       0.033367
     40 H22         -1.2870     1.3690     3.4340 ha         1 FRK       0.149500
     41 H23         -1.8270     1.3650     5.8360 ha         1 FRK       0.142000
     42 H25          1.3830    -1.3710     6.5640 ha         1 FRK       0.142000
     43 H26          1.9310    -1.3770     4.1630 ha         1 FRK       0.149500
     44 H31          2.5130     1.3850     4.0390 ha         1 FRK       0.145500
     45 H32          4.5920     1.3770     5.3560 ha         1 FRK       0.145000
     46 H34          6.3510    -1.3760     2.5900 ha         1 FRK       0.145000
     47 H35          4.2770    -1.3790     1.2640 ha         1 FRK       0.145500
     48 H40         -1.1780    -0.6870     7.8510 ho         1 FRK       0.420000
     49 H41          7.3140     0.6800     4.4680 ho         1 FRK       0.420000
@<TRIPOS>BOND
     1     1     2 1
     2     1     5 2
     3     1     7 1
     4     2     3 1
     5     3     4 2
     6     3     6 1
     7     4     5 1
     8     4    15 1
     9     6    21 ar
    10     6    25 ar
    11     7     8 1
    12     7    28 1
    13     8     9 1
    14     8    10 2
    15     9    11 1
    16     9    29 1
    17     9    30 1
    18    11    12 1
    19    11    31 1
    20    11    32 1
    21    12    13 1
    22    12    33 1
    23    12    34 1
    24    13    14 1
    25    13    35 1
    26    13    36 1
    27    14    37 1
    28    14    38 1
    29    14    39 1
    30    15    16 ar
    31    15    20 ar
    32    16    17 ar
    33    16    40 1
    34    17    18 ar
    35    17    41 1
    36    18    19 ar
    37    18    26 1
    38    19    20 ar
    39    19    42 1
    40    20    43 1
    41    21    22 ar
    42    21    44 1
    43    22    23 ar
    44    22    45 1
    45    23    24 ar
    46    23    27 1
    47    24    25 ar
    48    24    46 1
    49    25    47 1
    50    26    48 1
    51    27    49 1
@<TRIPOS>SUBSTRUCTURE
     1 FRK         1 TEMP              0 ****  ****    0 ROOT
