@<TRIPOS>MOLECULE
FRL
   52    55     1     0     0
SMALL
bcc


@<TRIPOS>ATOM
      1 C1          0.5140    0.2690   -0.5650 ca        1 FRL     -0.134000
      2 C2          1.8620    0.1690   -0.2340 ca        1 FRL     -0.077000
      3 C3          2.2920    0.4640    1.0680 ca        1 FRL     -0.134900
      4 C4          1.3610    0.8580    2.0410 ca        1 FRL     -0.077000
      5 C5          0.0110    0.9590    1.7100 ca        1 FRL     -0.134000
      6 C6         -0.4110    0.6660    0.4090 ca        1 FRL      0.043400
      7 CL7        -2.0520    0.7910    0.0060 cl        1 FRL     -0.065400
      8 C8          3.6970    0.3550    1.4190 cc        1 FRL      0.607200
      9 N9          4.3000    0.3970    2.6050 nd        1 FRL     -0.542100
     10 C10         5.6780    0.2300    2.3420 ca        1 FRL      0.072400
     11 C11         5.8570    0.0880    0.9220 ca        1 FRL      0.034100
     12 O12         4.6010    0.1680    0.3210 os        1 FRL     -0.331700
     13 C13         6.7950    0.1790    3.1800 ca        1 FRL     -0.053000
     14 C14         8.0400   -0.0090    2.5830 ca        1 FRL     -0.139000
     15 C15         8.1920   -0.1440    1.1970 ca        1 FRL     -0.107000
     16 C16         7.0980   -0.0970    0.3230 ca        1 FRL     -0.087300
     17 C17         7.2550   -0.2630   -1.1440 c3        1 FRL     -0.027100
     18 C18         6.8300    0.9910   -1.8860 c3        1 FRL     -0.102400
     19 C19         6.8000    0.7920   -3.4040 c3        1 FRL      0.041000
     20 C20         6.0880    1.9990   -4.0890 c3        1 FRL      0.131100
     21 O21         6.0880    1.7030   -5.4840 oh        1 FRL     -0.632800
     22 N22         8.1190    0.5510   -3.9770 na        1 FRL     -0.173900
     23 C23         4.6720    2.1730   -3.5730 c3        1 FRL     -0.135100
     24 C24         9.3880    0.8000   -3.3910 cc        1 FRL      0.448400
     25 N25        10.3870    0.5010   -4.2290 nd        1 FRL     -0.671000
     26 C26         9.7610    0.0530   -5.4160 cd        1 FRL      0.112800
     27 C27         8.3450    0.0950   -5.2560 cc        1 FRL     -0.029600
     28 C28        10.4560   -0.3700   -6.5910 c         1 FRL      0.513600
     29 O29        10.0370   -0.7830   -7.6650 o         1 FRL     -0.445100
     30 N30        11.9740   -0.2950   -6.4920 n4        1 FRL     -0.749400
     31 H1          0.1780    0.0320   -1.5850 ha        1 FRL      0.158000
     32 H2          2.5930   -0.1490   -0.9930 ha        1 FRL      0.155000
     33 H4          1.6900    1.0850    3.0680 ha        1 FRL      0.155000
     34 H5         -0.7190    1.2680    2.4760 ha        1 FRL      0.158000
     35 H13         6.6900    0.2820    4.2710 ha        1 FRL      0.165000
     36 H14         8.9360   -0.0570    3.2220 ha        1 FRL      0.147000
     37 H15         9.2000   -0.2990    0.7840 ha        1 FRL      0.133000
     38 H171        6.6200   -1.1280   -1.4820 hc        1 FRL      0.054700
     39 H172        8.3220   -0.5180   -1.3840 hc        1 FRL      0.054700
     40 H181        5.7850    1.2490   -1.5550 hc        1 FRL      0.079700
     41 H182        7.4880    1.8550   -1.6120 hc        1 FRL      0.079700
     42 H19         6.1860   -0.1320   -3.6380 h1        1 FRL      0.094700
     43 H20         6.6820    2.9410   -3.9170 h1        1 FRL      0.056700
     44 H21         5.5010    2.3360   -5.9150 ho        1 FRL      0.432000
     45 H231        4.0890    2.8150   -4.2800 hc        1 FRL      0.061700
     46 H232        4.6740    2.6740   -2.5760 hc        1 FRL      0.061700
     47 H233        4.1520    1.1890   -3.4870 hc        1 FRL      0.061700
     48 H24         9.5020    1.1830   -2.3660 h5        1 FRL      0.097100
     49 H27         7.5380   -0.1380   -5.9630 h4        1 FRL      0.235000
     50 H301       12.2560    0.6710   -6.2990 hn        1 FRL      0.467800
     51 H302       12.4000   -0.6110   -7.3690 hn        1 FRL      0.467800
     52 H303       12.2950   -0.8860   -5.7190 hn        1 FRL      0.467800
@<TRIPOS>BOND
     1    1    2 ar  
     2    1    6 ar  
     3    1   31 1   
     4    2    3 ar  
     5    2   32 1   
     6    3    4 ar  
     7    3    8 1   
     8    4    5 ar  
     9    4   33 1   
    10    5    6 ar  
    11    5   34 1   
    12    6    7 1   
    13    8    9 2   
    14    8   12 1   
    15    9   10 1   
    16   10   11 ar  
    17   10   13 ar  
    18   11   12 1   
    19   11   16 ar  
    20   13   14 ar  
    21   13   35 1   
    22   14   15 ar  
    23   14   36 1   
    24   15   16 ar  
    25   15   37 1   
    26   16   17 1   
    27   17   18 1   
    28   17   38 1   
    29   17   39 1   
    30   18   19 1   
    31   18   40 1   
    32   18   41 1   
    33   19   20 1   
    34   19   22 1   
    35   19   42 1   
    36   20   21 1   
    37   20   23 1   
    38   20   43 1   
    39   21   44 1   
    40   22   24 1   
    41   22   27 1   
    42   23   45 1   
    43   23   46 1   
    44   23   47 1   
    45   24   25 2   
    46   24   48 1   
    47   25   26 1   
    48   26   27 2   
    49   26   28 1   
    50   27   49 1   
    51   28   29 2   
    52   28   30 1   
    53   30   50 1   
    54   30   51 1   
    55   30   52 1   
@<TRIPOS>SUBSTRUCTURE
     1 FRL         1 TEMP              0 ****  ****    0 ROOT
