@<TRIPOS>MOLECULE
molecule
   33    35     1     0     0
SMALL
bcc


@<TRIPOS>ATOM
      1 C8           0.0000     0.0000     0.0000 c3         1 FRO      -0.102400
      2 C9           1.5480     0.0000     0.0000 c3         1 FRO      -0.120400
      3 C10          1.9270     0.0000     1.4940 c3         1 FRO       0.133400
      4 O11          0.7020     0.0500     2.2450 os         1 FRO      -0.426600
      5 C7          -0.3240    -0.5390     1.4160 c3         1 FRO       0.194300
      6 C5          -1.6900    -0.0820     1.8580 c2         1 FRO       0.014400
      7 S6          -2.1530     1.5750     2.2770 ss         1 FRO      -0.363700
      8 C4          -2.7810    -0.8580     2.0000 ce         1 FRO      -0.028600
      9 C12         -2.7190    -2.2350     1.7070 c          1 FRO       0.863800
     10 O13         -1.6150    -2.7530     1.1680 o          1 FRO      -0.815300
     11 O14         -3.7640    -3.0200     1.9680 o          1 FRO      -0.815300
     12 N3          -3.9670    -0.2850     2.4400 nj         1 FRO      -0.264000
     13 C2          -3.8920     1.1670     2.6310 cy         1 FRO       0.113800
     14 C1          -4.2150     1.0160     4.1140 cy         1 FRO      -0.209700
     15 C15         -4.3580    -0.4380     3.7240 c          1 FRO       0.709500
     16 O16         -4.7070    -1.4160     4.3520 o          1 FRO      -0.513500
     17 C17         -5.5210     1.6830     4.5490 c3         1 FRO       0.166100
     18 C18         -5.6720     1.5710     6.0670 c3         1 FRO      -0.118100
     19 O19         -6.6230     1.0330     3.9110 oh         1 FRO      -0.587800
     20 H81         -0.3840     1.0050    -0.1260 hc         1 FRO       0.057200
     21 H82         -0.3840    -0.6670    -0.7620 hc         1 FRO       0.057200
     22 H91          1.9260    -0.8920    -0.4850 hc         1 FRO       0.037700
     23 H92          1.9260     0.8920    -0.4850 hc         1 FRO       0.037700
     24 H101         2.4690    -0.9060     1.7360 h1         1 FRO       0.030200
     25 H102         2.5320     0.8700     1.7200 h1         1 FRO       0.030200
     26 H7          -0.2530    -1.6200     1.4360 h1         1 FRO       0.163700
     27 H2          -4.6270     1.7200     2.0600 h2         1 FRO       0.100700
     28 H1          -3.3640     1.2040     4.7580 hc         1 FRO       0.111700
     29 H17         -5.5050     2.7280     4.2640 h1         1 FRO       0.024700
     30 H181        -4.8010     1.0760     6.4800 hc         1 FRO       0.042700
     31 H182        -6.5590     0.9950     6.3000 hc         1 FRO       0.042700
     32 H183        -5.7610     2.5620     6.4950 hc         1 FRO       0.042700
     33 H19         -7.3120     1.6580     3.7600 ho         1 FRO       0.392000
@<TRIPOS>BOND
     1     1     2 1
     2     1     5 1
     3     1    20 1
     4     1    21 1
     5     2     3 1
     6     2    22 1
     7     2    23 1
     8     3     4 1
     9     3    24 1
    10     3    25 1
    11     4     5 1
    12     5     6 1
    13     5    26 1
    14     6     7 1
    15     6     8 2
    16     7    13 1
    17     8     9 1
    18     8    12 1
    19     9    10 1
    20     9    11 1
    21    12    13 1
    22    12    15 1
    23    13    14 1
    24    13    27 1
    25    14    15 1
    26    14    17 1
    27    14    28 1
    28    15    16 2
    29    17    18 1
    30    17    19 1
    31    17    29 1
    32    18    30 1
    33    18    31 1
    34    18    32 1
    35    19    33 1
@<TRIPOS>SUBSTRUCTURE
     1 FRO         1 TEMP              0 ****  ****    0 ROOT
