@<TRIPOS>MOLECULE
FRP
   85    80     1     0     0
SMALL
bcc


@<TRIPOS>ATOM
      1 C31       -35.2700   30.4420    1.7270 c2        1 FRP     -0.184000
      2 C30       -34.0830   30.4250    1.1170 c2        1 FRP     -0.189000
      3 C28       -34.5590   33.1860    2.6220 c2        1 FRP     -0.521000
      4 C27       -40.8730   28.5380   11.0690 c1        1 FRP     -0.412000
      5 C26       -40.3080   29.0150    9.9000 c2        1 FRP      0.349000
      6 C24       -45.8290   26.2410   14.0390 c1        1 FRP     -0.248000
      7 C23       -45.5050   26.2970   12.7690 c2        1 FRP      0.030000
      8 C22       -41.3820   28.1910   12.1120 c1        1 FRP      0.158000
      9 C16       -36.9040   28.0190    5.1590 c2        1 FRP     -0.104000
     10 C20       -39.3060   28.7630    7.6830 c2        1 FRP      0.304000
     11 C15       -36.1360   28.7330    4.1350 c2        1 FRP     -0.159000
     12 C12       -34.1980   27.1310    3.9980 c2        1 FRP      0.311000
     13 C13       259.5110 -219.9730  -45.3340 c2        1 FRP      0.279000
     14 C14       -29.6950   20.4230    0.3330 c3        1 FRP     -0.217000
     15 C11       259.1720 -218.6060  -45.5030 c3        1 FRP     -0.283000
     16 C10       -29.8220   20.2920    1.8270 c3        1 FRP     -0.186000
     17 C9        -29.7750   21.6370    2.5480 c3        1 FRP     -0.037000
     18 C8        257.7760 -218.2010  -45.1040 c3        1 FRP     -0.244000
     19 C7        -31.7640   22.9460    3.1840 c2        1 FRP      0.341000
     20 C4        -33.2230   24.9040    3.6150 c2        1 FRP      0.085000
     21 C5        -33.6160   26.1070    3.1340 c2        1 FRP     -0.317000
     22 C6        -35.3280   25.3500    1.7120 c1        1 FRP      0.075000
     23 C3        -32.9140   23.8040    2.7250 c2        1 FRP     -0.178000
     24 C2        -33.6980   23.4710    1.6730 c2        1 FRP      0.008000
     25 C1        -34.9300   24.1500    1.3310 c2        1 FRP     -0.383000
     26 F1        -44.2900   26.7120   12.3250 f         1 FRP     -0.146000
     27 C25       -46.2390   26.1520   15.2650 c2        1 FRP     -0.098000
     28 N3        -39.8880   28.2370    8.9040 n         1 FRP     -0.245000
     29 O3        -39.2080   29.9830    7.5710 o         1 FRP     -0.227000
     30 C19       -38.8770   27.7310    6.6490 c3        1 FRP     -0.078000
     31 C21       -40.1000   27.0370    6.0740 c3        1 FRP     -0.225000
     32 C18       -38.1150   28.4220    5.5670 c2        1 FRP     -0.148000
     33 N4        -42.5360   27.4690   14.6580 n3        1 FRP     -0.422000
     34 C32       -35.5050   30.9420    3.0790 c2        1 FRP     -0.186000
     35 C33       -35.1970   32.2150    3.4550 c2        1 FRP      0.077000
     36 C29       -34.1390   34.4010    2.9470 c1        1 FRP      0.357000
     37 N2        -35.2920   27.9070    3.2750 n4        1 FRP     -0.063000
     38 O2        -33.9650   27.3990    5.1660 o         1 FRP     -0.177000
     39 O1        -31.6490   22.7040    4.4020 o         1 FRP     -0.349000
     40 N1        -30.8730   22.5220    2.2370 n         1 FRP     -0.350000
     41 H31       -36.1850   30.1140    1.1970 ha        1 FRP      0.141000
     42 H30       -33.9680   30.0770    0.0790 ha        1 FRP      0.138500
     43 H28       -33.1570   30.7730    1.5970 ha        1 FRP      0.138500
     44 H27       -40.1920   30.1260    9.7740 h4        1 FRP      0.227000
     45 H24       -46.7460   26.9860   15.7790 ha        1 FRP      0.148000
     46 H22       -46.1950   26.0120   11.9540 h4        1 FRP      0.170000
     47 H16       -36.4080   27.1410    5.6140 ha        1 FRP      0.148000
     48 H171      -37.5580   25.7330    1.1450 ha        1 FRP      0.007500
     49 H172      -36.8080   30.6190    4.7790 ha        1 FRP      0.166000
     50 H15       -37.4090   25.3810    0.5830 ha        1 FRP      0.007500
     51 H131      257.5940 -218.4000  -44.0190 hc        1 FRP      0.125667
     52 H132      260.5180 -220.3540  -45.6030 ha        1 FRP      0.188000
     53 H133      258.7830 -220.7070  -44.9290 ha        1 FRP      0.188000
     54 H141      -28.7950   21.0270    0.0620 hc        1 FRP      0.078000
     55 H142      -29.5900   19.4120   -0.1330 hc        1 FRP      0.078000
     56 H143      -30.5950   20.9140   -0.1110 hc        1 FRP      0.078000
     57 H111      259.3860 -218.3040  -46.5920 hc        1 FRP      0.248000
     58 H112      259.9530 -217.9620  -44.9560 hc        1 FRP      0.248000
     59 H101      -29.7590   21.4580    3.6620 h1        1 FRP      0.114000
     60 H102      -28.9670   19.6800    2.2230 hc        1 FRP      0.101000
     61 H91       -30.7670   19.7450    2.0850 hc        1 FRP      0.101000
     62 H92       -28.8210   22.1710    2.2630 h1        1 FRP      0.114000
     63 H81       257.0100 -218.7520  -45.7030 hc        1 FRP      0.125667
     64 H82       257.6340 -217.1050  -45.2840 hc        1 FRP      0.125667
     65 H4        -33.1600   24.6800    4.7020 ha        1 FRP      0.196000
     66 H6        -33.4300   26.3950    2.0790 ha        1 FRP      0.186000
     67 H2        -35.6140   23.5640    0.6710 ha        1 FRP      0.220000
     68 H1        -33.4530   22.5920    1.0470 ha        1 FRP      0.170000
     69 H25       -46.1180   25.2330   15.8620 ha        1 FRP      0.148000
     70 HN3       -41.8560   27.8760   13.0710 ha        1 FRP      0.335000
     71 H19       -39.9770   27.2360    8.9680 hn        1 FRP      0.277000
     72 H211      -40.8130   27.7790    5.6370 hc        1 FRP      0.108000
     73 H212      -40.6290   26.4400    6.8550 hc        1 FRP      0.108000
     74 H213      -39.7810   26.3390    5.2600 hc        1 FRP      0.108000
     75 H181      -38.2200   26.9680    7.1610 hc        1 FRP      0.136000
     76 H182      -38.6290   29.2920    5.1220 ha        1 FRP      0.160000
     77 HN41      -42.6100   28.2770   15.2420 hn        1 FRP      0.161667
     78 HN42      -41.9940   26.7740   15.1310 hn        1 FRP      0.161667
     79 H33       -35.4450   32.5480    4.4830 ha        1 FRP      0.141000
     80 H29       -34.4000   32.9030    1.5510 ha        1 FRP      0.216000
     81 HN2       -34.8310   28.5050    2.5680 hn        1 FRP      0.276500
     82 C17       -36.1820   30.0880    4.0300 c2        1 FRP      0.023000
     83 H43       -43.4550   27.1050   14.4850 hn        1 FRP      0.161667
     84 H221      -35.8750   27.2060    2.7700 hn        1 FRP      0.276500
     85 H11       -31.0600   22.6880    1.2760 hn        1 FRP      0.228000
@<TRIPOS>BOND
     1    1    2 1   
     2    1   34 1   
     3    1   41 1   
     4    2   42 1   
     5    2   43 1   
     6    3   35 1   
     7    3   36 1   
     8    3   80 1   
     9    4    5 1   
    10    4    8 1   
    11    5   28 1   
    12    5   44 1   
    13    6    7 1   
    14    6   27 1   
    15    7   26 1   
    16    7   46 1   
    17    8   70 1   
    18    9   11 1   
    19    9   32 1   
    20    9   47 1   
    21   10   28 1   
    22   10   29 1   
    23   10   30 1   
    24   11   37 1   
    25   11   82 1   
    26   12   21 1   
    27   12   37 1   
    28   12   38 1   
    29   13   15 1   
    30   13   52 1   
    31   13   53 1   
    32   14   16 1   
    33   14   54 1   
    34   14   55 1   
    35   14   56 1   
    36   15   18 1   
    37   15   57 1   
    38   15   58 1   
    39   16   17 1   
    40   16   60 1   
    41   16   61 1   
    42   17   40 1   
    43   17   59 1   
    44   17   62 1   
    45   18   51 1   
    46   18   63 1   
    47   18   64 1   
    48   19   23 1   
    49   19   39 1   
    50   19   40 1   
    51   20   21 1   
    52   20   23 1   
    53   20   65 1   
    54   21   66 1   
    55   22   25 1   
    56   23   24 1   
    57   24   25 1   
    58   24   68 1   
    59   25   67 1   
    60   27   45 1   
    61   27   69 1   
    62   28   71 1   
    63   30   31 1   
    64   30   32 1   
    65   30   75 1   
    66   31   72 1   
    67   31   73 1   
    68   31   74 1   
    69   32   76 1   
    70   33   77 1   
    71   33   78 1   
    72   33   83 1   
    73   34   35 1   
    74   34   82 1   
    75   35   79 1   
    76   37   81 1   
    77   37   84 1   
    78   40   85 1   
    79   48   50 1   
    80   49   82 1   
@<TRIPOS>SUBSTRUCTURE
     1 FRP         1 TEMP              0 ****  ****    0 ROOT
