@<TRIPOS>MOLECULE
FRR
   48    49     1     0     0
SMALL
bcc


@<TRIPOS>ATOM
      1 C11        -0.0260    0.0330    0.0270 ca        1 FRR      0.204100
      2 C2          1.3770   -0.0220    0.0510 ca        1 FRR     -0.174600
      3 C3          2.0500    0.0290    1.2890 ca        1 FRR      0.053200
      4 C14         1.3230    0.1450    2.4740 ca        1 FRR     -0.192000
      5 C15        -0.0830    0.2070    2.4270 ca        1 FRR      0.184100
      6 C16        -0.7700    0.1520    1.2130 ca        1 FRR     -0.301000
      7 C23         3.5070   -0.0170    1.3100 ce        1 FRR     -0.128200
      8 C17         4.2280   -0.6340    2.2540 c2        1 FRR     -0.141200
      9 O15         2.6760   -1.3720   -1.3930 os        1 FRR     -0.441900
     10 C26         2.1460   -0.1220   -1.2030 c         1 FRR      0.673700
     11 C31         3.6430   -1.5360   -2.4530 c3        1 FRR      0.154100
     12 C18         4.4640   -2.7570   -2.0260 c3        1 FRR     -0.068200
     13 C24         6.2230   -1.9950    1.6550 c3        1 FRR      0.117100
     14 C34         5.7110   -0.6690    2.2270 c3        1 FRR     -0.063200
     15 C39         7.2920   -1.7990    0.5590 c3        1 FRR      0.017100
     16 C40         6.7060   -1.1720   -0.7030 c         1 FRR      0.575300
     17 C41         6.8460   -2.0000   -1.9160 ce        1 FRR     -0.252200
     18 C42         5.8620   -2.6770   -2.5110 c2        1 FRR     -0.113200
     19 O38         2.3630    0.7490   -2.0440 o         1 FRR     -0.520000
     20 O40         6.1990   -0.0500   -0.7080 o         1 FRR     -0.497100
     21 O42         6.8280   -2.6830    2.7440 oh        1 FRR     -0.601800
     22 O44         8.3580   -0.9700    0.9880 oh        1 FRR     -0.582800
     23 O46        -0.6350   -0.0510   -1.2000 oh        1 FRR     -0.483100
     24 O48        -0.6940    0.3210    3.6570 os        1 FRR     -0.320900
     25 C59        -2.1150    0.4130    3.6540 c3        1 FRR      0.111700
     26 C62         2.9340   -1.7500   -3.7730 c3        1 FRR     -0.118100
     27 H46        -1.5890    0.0600   -1.0740 ho        1 FRR      0.425000
     28 H16        -1.8660    0.2000    1.1670 ha        1 FRR      0.144000
     29 H591       -2.4500    1.3160    3.0880 h1        1 FRR      0.047700
     30 H592       -2.3690    0.5100    4.7400 h1        1 FRR      0.047700
     31 H593       -2.5670   -0.5120    3.2230 h1        1 FRR      0.047700
     32 H14         1.8340    0.1970    3.4460 ha        1 FRR      0.159000
     33 H23         4.0070    0.4810    0.4550 ha        1 FRR      0.158000
     34 H17         3.7520   -1.1580    3.1000 ha        1 FRR      0.129000
     35 H341        6.1080   -0.5480    3.2710 hc        1 FRR      0.082200
     36 H342        6.1190    0.1760    1.6060 hc        1 FRR      0.082200
     37 H24         5.3790   -2.6060    1.2310 h1        1 FRR      0.056700
     38 H42         7.0170   -3.5810    2.4490 ho        1 FRR      0.405000
     39 H39         7.7290   -2.8080    0.3020 h1        1 FRR      0.049700
     40 H44         8.3890   -1.0240    1.9540 ho        1 FRR      0.424000
     41 H41         7.8730   -2.0020   -2.3210 ha        1 FRR      0.155000
     42 H1          6.0730   -3.2500   -3.4320 ha        1 FRR      0.131000
     43 H181        3.9740   -3.6880   -2.4160 hc        1 FRR      0.062200
     44 H182        4.4490   -2.8210   -0.9020 hc        1 FRR      0.062200
     45 H31         4.2930   -0.6160   -2.4940 h1        1 FRR      0.084700
     46 H621        2.3790   -0.8220   -4.0530 hc        1 FRR      0.050700
     47 H622        3.6830   -1.9850   -4.5650 hc        1 FRR      0.050700
     48 H623        2.2060   -2.5930   -3.6970 hc        1 FRR      0.050700
@<TRIPOS>BOND
     1    1    2 ar
     2    1    6 ar
     3    1   23 1
     4    2    3 ar
     5    2   10 1
     6    3    4 ar
     7    3    7 1
     8    4    5 ar
     9    4   32 1
    10    5    6 ar
    11    5   24 1
    12    6   28 1
    13    7    8 2
    14    7   33 1
    15    8   14 1
    16    8   34 1
    17    9   10 1
    18    9   11 1
    19   10   19 2
    20   11   12 1
    21   11   26 1
    22   11   45 1
    23   12   18 1
    24   12   43 1
    25   12   44 1
    26   13   14 1
    27   13   15 1
    28   13   21 1
    29   13   37 1
    30   14   35 1
    31   14   36 1
    32   15   16 1
    33   15   22 1
    34   15   39 1
    35   16   17 1
    36   16   20 2
    37   17   18 2
    38   17   41 1
    39   18   42 1
    40   21   38 1
    41   22   40 1
    42   23   27 1
    43   24   25 1
    44   25   29 1
    45   25   30 1
    46   25   31 1
    47   26   46 1
    48   26   47 1
    49   26   48 1
@<TRIPOS>SUBSTRUCTURE
     1 FRR         1 TEMP              0 ****  ****    0 ROOT
