@<TRIPOS>MOLECULE
FRS
   51    54     1     0     0
SMALL
bcc


@<TRIPOS>ATOM
      1 N33        -0.3800    0.7420    0.3570 na        1 FRS     -0.161400
      2 N29         2.8210    0.6770    1.8140 nh        1 FRS     -0.783600
      3 C30         1.4920    0.4760    1.3800 cc        1 FRS      0.720900
      4 C28         3.1280    0.5990    3.1910 ca        1 FRS      0.687200
      5 C27         4.4900    0.7780    3.5690 ca        1 FRS     -0.455600
      6 C23         4.8240    0.6230    4.9440 ca        1 FRS      0.684200
      7 C20         8.5720    0.5090    5.1780 c3        1 FRS     -0.014200
      8 C15        11.5420   -0.1330    2.6610 cc        1 FRS      0.666100
      9 C12        12.7710   -2.0100    1.9510 c         1 FRS      0.817500
     10 C10        14.2130   -3.7640    1.0190 cc        1 FRS      0.045300
     11 C5         15.2450   -4.2400    0.2030 cd        1 FRS      0.040000
     12 C6         16.1980   -3.5990   -0.7580 c3        1 FRS      0.643600
     13 C3         13.6790   -4.9300    1.7130 cc        1 FRS     -0.275300
     14 C2         14.4120   -6.0170    1.2780 cd        1 FRS      0.305000
     15 C1         14.3670   -7.4470    1.5930 c3        1 FRS     -0.142400
     16 O13        12.1240   -2.8040    2.6810 o         1 FRS     -0.640100
     17 N11        13.8100   -2.4490    1.1190 n         1 FRS     -0.424100
     18 F9         17.5240   -3.7450   -0.4350 f         1 FRS     -0.233300
     19 F8         16.1120   -4.0630   -2.0470 f         1 FRS     -0.233300
     20 F7         16.0260   -2.2380   -0.8750 f         1 FRS     -0.233300
     21 O4         15.3810   -5.6250    0.3500 os        1 FRS     -0.328800
     22 N14        12.5100   -0.6150    1.9030 nf        1 FRS     -0.752100
     23 N17        11.2260    1.2340    2.6640 na        1 FRS     -0.681000
     24 C18        10.1810    1.5440    3.5290 cc        1 FRS      0.031000
     25 C19         9.6660    0.4640    4.1960 cd        1 FRS     -0.175600
     26 S16        10.4730   -0.9730    3.7720 ss        1 FRS      0.046200
     27 C21         7.2220    0.6960    4.4720 c3        1 FRS      0.196800
     28 N22         6.1260    0.8690    5.3960 nh        1 FRS     -0.845900
     29 N26         2.1600    0.3140    4.1210 nb        1 FRS     -0.742000
     30 C25         2.6000    0.1770    5.3940 ca        1 FRS      0.686900
     31 N24         3.8560    0.2990    5.8750 nb        1 FRS     -0.773000
     32 N35         0.7710    1.3690    0.5950 nd        1 FRS     -0.557800
     33 C32        -0.4070   -0.5110    0.9910 cd        1 FRS      0.408400
     34 N31         0.7540   -0.7200    1.6410 nc        1 FRS     -0.640000
     35 HN29        3.2960    1.4190    1.3390 hn        1 FRS      0.435800
     36 H27         5.2540    1.0220    2.8220 ha        1 FRS      0.152000
     37 H20         8.7480    1.3550    5.8970 hc        1 FRS      0.064700
     38 H20A        8.5590   -0.4420    5.7770 hc        1 FRS      0.064700
     39 H3         12.8590   -4.9090    2.4300 ha        1 FRS      0.202000
     40 H1         13.5510   -7.6440    2.3310 hc        1 FRS      0.066033
     41 H1A        14.1750   -8.0430    0.6650 hc        1 FRS      0.066033
     42 H1B        15.3440   -7.7790    2.0270 hc        1 FRS      0.066033
     43 HN11       14.2970   -1.7810    0.5570 hn        1 FRS      0.351500
     44 HN17       11.7070    1.9070    2.1170 hn        1 FRS      0.477800
     45 H18         9.8610    2.5910    3.6090 h4        1 FRS      0.186000
     46 H21         7.0450   -0.1850    3.7880 h1        1 FRS      0.049700
     47 H21A        7.2760    1.6200    3.8270 h1        1 FRS      0.049700
     48 HN22        6.3150    0.5930    6.3380 hn        1 FRS      0.425800
     49 H25         1.8190   -0.0710    6.1460 h5        1 FRS      0.054100
     50 H32        -1.2590   -1.1970    0.9430 h5        1 FRS      0.073100
     51 H17        -1.0830    1.1770   -0.1920 hn        1 FRS      0.328700
@<TRIPOS>BOND
     1    1   32 1
     2    1   33 1
     3    1   51 1
     4    2    3 1
     5    2    4 1
     6    2   35 1
     7    3   32 2
     8    3   34 1
     9    4    5 ar
    10    4   29 ar
    11    5    6 ar
    12    5   36 1
    13    6   28 1
    14    6   31 ar
    15    7   25 1
    16    7   27 1
    17    7   37 1
    18    7   38 1
    19    8   22 2
    20    8   23 1
    21    8   26 1
    22    9   16 2
    23    9   17 1
    24    9   22 1
    25   10   11 2
    26   10   13 1
    27   10   17 1
    28   11   12 1
    29   11   21 1
    30   12   18 1
    31   12   19 1
    32   12   20 1
    33   13   14 2
    34   13   39 1
    35   14   15 1
    36   14   21 1
    37   15   40 1
    38   15   41 1
    39   15   42 1
    40   17   43 1
    41   23   24 1
    42   23   44 1
    43   24   25 2
    44   24   45 1
    45   25   26 1
    46   27   28 1
    47   27   46 1
    48   27   47 1
    49   28   48 1
    50   29   30 ar
    51   30   31 ar
    52   30   49 1
    53   33   34 2
    54   33   50 1
@<TRIPOS>SUBSTRUCTURE
     1 FRS         1 TEMP              0 ****  ****    0 ROOT
