@<TRIPOS>MOLECULE
FRT
   56    58     1     0     0
SMALL
bcc


@<TRIPOS>ATOM
      1 C1           0.0000     0.0000     0.0000 ca         1 FRT       0.564800
      2 N2           1.3670     0.0000     0.0000 nb         1 FRT      -0.699000
      3 C3           2.0370     0.0000     1.1650 ca         1 FRT       0.722900
      4 N4           1.4670    -0.0010     2.3710 nb         1 FRT      -0.647000
      5 C5           0.1230     0.0010     2.4400 ca         1 FRT       0.473200
      6 C6          -0.6860     0.0020     1.2760 ca         1 FRT      -0.356600
      7 N7           3.4760    -0.0020     1.0340 nu         1 FRT      -0.353300
      8 C8           4.4520    -0.6310     0.1650 ca         1 FRT       0.125600
      9 C9           4.1020    -1.4650    -0.9460 ca         1 FRT      -0.188000
     10 C10          5.1060    -2.0510    -1.7480 ca         1 FRT       0.049000
     11 C11          6.4620    -1.8040    -1.4400 ca         1 FRT      -0.120500
     12 C12          6.8430    -0.9860    -0.3500 ca         1 FRT       0.049000
     13 C13          5.8320    -0.4000     0.4530 ca         1 FRT      -0.188000
     14 S14          7.6920    -2.5280    -2.4190 sy         1 FRT       0.596200
     15 N15          7.0440    -2.7220    -4.0200 n7         1 FRT      -0.460100
     16 C16          7.6330    -1.7650    -4.9800 c3         1 FRT       0.188800
     17 C17          7.0560    -1.9750    -6.3820 c3         1 FRT       0.208400
     18 O18          7.6560    -1.0330    -7.2930 os         1 FRT      -0.415600
     19 C19          7.1870    -1.1390    -8.6580 c3         1 FRT       0.259700
     20 C20         -0.7190    -0.0090    -1.2570 cc         1 FRT      -0.501100
     21 N21         -0.3070    -0.6040    -2.5020 na         1 FRT       0.282100
     22 C22         -1.4510    -0.2610    -3.2770 cc         1 FRT       0.248800
     23 N23         -2.4850     0.4400    -2.7180 nd         1 FRT      -0.614000
     24 C24         -2.0090     0.5920    -1.4420 cd         1 FRT       0.384200
     25 C25          0.9680    -1.3830    -2.8390 c3         1 FRT      -0.047000
     26 C26          0.6630    -2.8460    -3.2210 c3         1 FRT      -0.006100
     27 C27          1.7940    -0.6860    -3.9530 c3         1 FRT      -0.006100
     28 C28         -1.6560    -0.6240    -4.7640 c3         1 FRT      -0.020400
     29 O29          8.9700    -1.5760    -2.4760 o          1 FRT      -0.487300
     30 O30          8.0810    -3.9600    -1.8450 o          1 FRT      -0.487300
     31 H6          -1.7680     0.0030     1.3380 ha         1 FRT       0.138000
     32 H7           3.9120     0.5820     1.7200 hn         1 FRT       0.274800
     33 H5          -0.3540     0.0010     3.4130 h4         1 FRT      -0.014900
     34 H9           3.0590    -1.6470    -1.1730 ha         1 FRT       0.123500
     35 H13          6.1090     0.2280     1.2910 ha         1 FRT       0.123500
     36 H10          4.8400    -2.6810    -2.5880 ha         1 FRT       0.120000
     37 H12          7.8900    -0.8110    -0.1330 ha         1 FRT       0.120000
     38 H15          6.7440    -3.6240    -4.3330 hn         1 FRT       0.337800
     39 H161         7.4170    -0.7550    -4.6540 h1         1 FRT       0.036700
     40 H162         8.7060    -1.9070    -5.0120 h1         1 FRT       0.036700
     41 H171         7.2690    -2.9840    -6.7130 h1         1 FRT      -0.009800
     42 H172         5.9840    -1.8210    -6.3580 h1         1 FRT      -0.009800
     43 H191         7.7060    -0.4150    -9.2750 h1         1 FRT      -0.011633
     44 H192         7.3830    -2.1370    -9.0300 h1         1 FRT      -0.011633
     45 H193         6.1220    -0.9430    -8.6900 h1         1 FRT      -0.011633
     46 H24         -2.5480     1.1090    -0.6570 h4         1 FRT      -0.005900
     47 H25          1.5800    -1.4030    -1.9460 h1         1 FRT       0.065700
     48 H281        -2.6930    -0.4670    -5.0350 hc         1 FRT       0.014700
     49 H282        -1.3950    -1.6640    -4.9210 hc         1 FRT       0.014700
     50 H283        -1.0220     0.0030    -5.3800 hc         1 FRT       0.014700
     51 H261         0.5240    -2.9180    -4.2930 hc         1 FRT       0.017367
     52 H262        -0.2390    -3.1700    -2.7170 hc         1 FRT       0.017367
     53 H263         1.4910    -3.4770    -2.9210 hc         1 FRT       0.017367
     54 H271         2.0920     0.3000    -3.6170 hc         1 FRT       0.017367
     55 H272         2.6760    -1.2750    -4.1710 hc         1 FRT       0.017367
     56 H273         1.1900    -0.5950    -4.8470 hc         1 FRT       0.017367
@<TRIPOS>BOND
     1     1     2 ar  
     2     1     6 ar  
     3     1    20 1   
     4     2     3 ar  
     5     3     4 ar  
     6     3     7 1   
     7     4     5 ar  
     8     5     6 ar  
     9     5    33 1   
    10     6    31 1   
    11     7     8 1   
    12     7    32 1   
    13     8     9 ar  
    14     8    13 ar  
    15     9    10 ar  
    16     9    34 1   
    17    10    11 ar  
    18    10    36 1   
    19    11    12 ar  
    20    11    14 1   
    21    12    13 ar  
    22    12    37 1   
    23    13    35 1   
    24    14    15 1   
    25    14    29 2   
    26    14    30 2   
    27    15    16 1   
    28    15    38 1   
    29    16    17 1   
    30    16    39 1   
    31    16    40 1   
    32    17    18 1   
    33    17    41 1   
    34    17    42 1   
    35    18    19 1   
    36    19    43 1   
    37    19    44 1   
    38    19    45 1   
    39    20    21 1   
    40    20    24 2   
    41    21    22 1   
    42    21    25 1   
    43    22    23 2   
    44    22    28 1   
    45    23    24 1   
    46    24    46 1   
    47    25    26 1   
    48    25    27 1   
    49    25    47 1   
    50    26    51 1   
    51    26    52 1   
    52    26    53 1   
    53    27    54 1   
    54    27    55 1   
    55    27    56 1   
    56    28    48 1   
    57    28    49 1   
    58    28    50 1   
@<TRIPOS>SUBSTRUCTURE
     1 FRT         1 TEMP              0 ****  ****    0 ROOT
