@<TRIPOS>MOLECULE
FRV
   47    50     1     0     0
SMALL
bcc


@<TRIPOS>ATOM
      1 C13          0.0000     0.0000     0.0000 ca         1 FRV      -0.182000
      2 N21         -2.3480    -1.3990    -5.0490 na         1 FRV       0.335100
      3 C25         -2.2080    -1.6120    -6.5300 cx         1 FRV      -0.154000
      4 C22         -3.5620    -1.6840    -4.4110 cc         1 FRV       0.219800
      5 C28         -4.8270    -2.2240    -5.0580 c3         1 FRV       0.003600
      6 C26         -0.9830    -2.4190    -6.9840 cx         1 FRV      -0.070400
      7 C6           0.6640    -0.0200    -5.0670 ca         1 FRV      -0.436600
      8 C1          -0.1090    -0.4480    -3.9760 ca         1 FRV       0.599800
      9 C20         -1.5050    -0.9240    -4.0370 cc         1 FRV      -0.482100
     10 C24         -2.2600    -0.9740    -2.8710 cd         1 FRV       0.358200
     11 C5           1.9880     0.4320    -4.8220 ca         1 FRV       0.513200
     12 C8           1.4400     0.0000     0.0000 ca         1 FRV       0.064600
     13 C3           1.7320     0.0320    -2.4850 ca         1 FRV       0.718900
     14 N2           0.4600    -0.3990    -2.7380 nb         1 FRV      -0.730000
     15 C16         -2.3300    -2.2080     3.8560 c3         1 FRV       0.242100
     16 C9           2.1110     0.0000     1.2350 ca         1 FRV      -0.182000
     17 C10          1.4000     0.0100     2.4530 ca         1 FRV       0.045500
     18 C11         -0.0010     0.0180     2.4510 ca         1 FRV      -0.170500
     19 O30         -1.0830     1.4190     4.3200 o          1 FRV      -0.576800
     20 S14         -0.8530     0.0360     3.9490 sy         1 FRV       0.915200
     21 O29         -0.0670    -0.6200     4.9680 o          1 FRV      -0.576800
     22 N15         -2.4250    -0.7710     3.7850 n7         1 FRV      -0.506100
     23 C12         -0.7100     0.0100     1.2170 ca         1 FRV       0.045500
     24 N7           2.1750     0.0160    -1.2000 nu         1 FRV      -0.231300
     25 N4           2.4610     0.4420    -3.5490 nb         1 FRV      -0.707000
     26 N23         -3.4930    -1.4350    -3.1410 nd         1 FRV      -0.608000
     27 C30         -1.3060    -1.0480    -7.5890 cx         1 FRV      -0.070400
     28 H6           0.2610    -0.0380    -6.0730 ha         1 FRV       0.137000
     29 H7           3.1700     0.0140    -1.0920 hn         1 FRV       0.276800
     30 H5           2.6120     0.7700    -5.6400 h4         1 FRV      -0.013900
     31 H9           3.1940    -0.0030     1.2520 ha         1 FRV       0.136500
     32 H13         -0.5400    -0.0030    -0.9390 ha         1 FRV       0.136500
     33 H10          1.9390     0.0090     3.3920 ha         1 FRV       0.120500
     34 H12         -1.7940     0.0130     1.2140 ha         1 FRV       0.120500
     35 H15         -3.2400    -0.3060     4.1320 hn         1 FRV       0.338800
     36 H161        -2.4790    -2.5300     4.8790 h1         1 FRV       0.000367
     37 H162        -1.3500    -2.5230     3.5180 h1         1 FRV       0.000367
     38 H163        -3.0890    -2.6520     3.2240 h1         1 FRV       0.000367
     39 H24         -1.9090    -0.6790    -1.8900 h4         1 FRV       0.017100
     40 H25         -3.1070    -2.0330    -6.9650 h1         1 FRV       0.073700
     41 H281        -4.6270    -3.2010    -5.4820 hc         1 FRV       0.014033
     42 H282        -5.6070    -2.3070    -4.3120 hc         1 FRV       0.014033
     43 H283        -5.1470    -1.5490    -5.8430 hc         1 FRV       0.014033
     44 H261        -1.1910    -3.2720    -7.6180 hc         1 FRV       0.058700
     45 H262        -0.1520    -2.4400    -6.2900 hc         1 FRV       0.058700
     46 H301        -1.7030    -1.0650    -8.5970 hc         1 FRV       0.058700
     47 H302        -0.6660    -0.2350    -7.2710 hc         1 FRV       0.058700
@<TRIPOS>BOND
     1     1    12 ar  
     2     1    23 ar  
     3     1    32 1   
     4     2     3 1   
     5     2     4 1   
     6     2     9 1   
     7     3     6 1   
     8     3    27 1   
     9     3    40 1   
    10     4     5 1   
    11     4    26 2   
    12     5    41 1   
    13     5    42 1   
    14     5    43 1   
    15     6    27 1   
    16     6    44 1   
    17     6    45 1   
    18     7     8 ar  
    19     7    11 ar  
    20     7    28 1   
    21     8     9 1   
    22     8    14 ar  
    23     9    10 2   
    24    10    26 1   
    25    10    39 1   
    26    11    25 ar  
    27    11    30 1   
    28    12    16 ar  
    29    12    24 1   
    30    13    14 ar  
    31    13    24 1   
    32    13    25 ar  
    33    15    22 1   
    34    15    36 1   
    35    15    37 1   
    36    15    38 1   
    37    16    17 ar  
    38    16    31 1   
    39    17    18 ar  
    40    17    33 1   
    41    18    20 1   
    42    18    23 ar  
    43    19    20 2   
    44    20    21 2   
    45    20    22 1   
    46    22    35 1   
    47    23    34 1   
    48    24    29 1   
    49    27    46 1   
    50    27    47 1   
@<TRIPOS>SUBSTRUCTURE
     1 FRV         1 TEMP              0 ****  ****    0 ROOT
