@<TRIPOS>MOLECULE
molecule
   47    50     1     0     0
SMALL
bcc


@<TRIPOS>ATOM
      1 C13          0.0000     0.0000     0.0000 ca         1 FRV      -0.194000
      2 N21         -2.3480    -1.3990    -5.0490 na         1 FRV      -0.161900
      3 C25         -2.2080    -1.6120    -6.5300 cx         1 FRV      -0.016000
      4 C22         -3.5620    -1.6840    -4.4110 cc         1 FRV       0.428800
      5 C28         -4.8270    -2.2240    -5.0580 c3         1 FRV      -0.109400
      6 C26         -0.9830    -2.4190    -6.9840 cx         1 FRV      -0.135900
      7 C6           0.6640    -0.0200    -5.0670 ca         1 FRV      -0.432600
      8 C1          -0.1090    -0.4480    -3.9760 ca         1 FRV       0.610800
      9 C20         -1.5050    -0.9240    -4.0370 cc         1 FRV      -0.299100
     10 C24         -2.2600    -0.9740    -2.8710 cd         1 FRV       0.364200
     11 C5           1.9880     0.4320    -4.8220 ca         1 FRV       0.507200
     12 C8           1.4400     0.0000     0.0000 ca         1 FRV       0.239600
     13 C3           1.7320     0.0320    -2.4850 ca         1 FRV       0.952900
     14 N2           0.4600    -0.3990    -2.7380 nb         1 FRV      -0.822000
     15 C16         -2.3300    -2.2080     3.8560 c3         1 FRV       0.201100
     16 C9           2.1110     0.0000     1.2350 ca         1 FRV      -0.194000
     17 C10          1.4000     0.0100     2.4530 ca         1 FRV       0.008000
     18 C11         -0.0010     0.0180     2.4510 ca         1 FRV      -0.340500
     19 O30         -1.0830     1.4190     4.3200 o          1 FRV      -0.612300
     20 S14         -0.8530     0.0360     3.9490 sy         1 FRV       1.282200
     21 O29         -0.0670    -0.6200     4.9680 o          1 FRV      -0.612300
     22 N15         -2.4250    -0.7710     3.7850 n7         1 FRV      -0.839100
     23 C12         -0.7100     0.0100     1.2170 ca         1 FRV       0.008000
     24 N7           2.1750     0.0160    -1.2000 nu         1 FRV      -0.726300
     25 N4           2.4610     0.4420    -3.5490 nb         1 FRV      -0.799000
     26 N23         -3.4930    -1.4350    -3.1410 nd         1 FRV      -0.687000
     27 C30         -1.3060    -1.0480    -7.5890 cx         1 FRV      -0.135900
     28 H6           0.2610    -0.0380    -6.0730 ha         1 FRV       0.150000
     29 H7           3.1700     0.0140    -1.0920 hn         1 FRV       0.456800
     30 H5           2.6120     0.7700    -5.6400 h4         1 FRV       0.039100
     31 H9           3.1940    -0.0030     1.2520 ha         1 FRV       0.159000
     32 H13         -0.5400    -0.0030    -0.9390 ha         1 FRV       0.159000
     33 H10          1.9390     0.0090     3.3920 ha         1 FRV       0.157000
     34 H12         -1.7940     0.0130     1.2140 ha         1 FRV       0.157000
     35 H15         -3.2400    -0.3060     4.1320 hn         1 FRV       0.444800
     36 H161        -2.4790    -2.5300     4.8790 h1         1 FRV       0.038700
     37 H162        -1.3500    -2.5230     3.5180 h1         1 FRV       0.038700
     38 H163        -3.0890    -2.6520     3.2240 h1         1 FRV       0.038700
     39 H24         -1.9090    -0.6790    -1.8900 h4         1 FRV       0.055100
     40 H25         -3.1070    -2.0330    -6.9650 h1         1 FRV       0.096700
     41 H281        -4.6270    -3.2010    -5.4820 hc         1 FRV       0.057033
     42 H282        -5.6070    -2.3070    -4.3120 hc         1 FRV       0.057033
     43 H283        -5.1470    -1.5490    -5.8430 hc         1 FRV       0.057033
     44 H261        -1.1910    -3.2720    -7.6180 hc         1 FRV       0.088700
     45 H262        -0.1520    -2.4400    -6.2900 hc         1 FRV       0.088700
     46 H301        -1.7030    -1.0650    -8.5970 hc         1 FRV       0.088700
     47 H302        -0.6660    -0.2350    -7.2710 hc         1 FRV       0.088700
@<TRIPOS>BOND
     1     8    14 ar
     2     8     7 ar
     3     8     9 1
     4    14    13 ar
     5    13    25 ar
     6    13    24 1
     7    25    11 ar
     8    11     7 ar
     9    24    12 1
    10    12    16 ar
    11    12     1 ar
    12    16    17 ar
    13    17    18 ar
    14    18    23 ar
    15    18    20 1
    16    23     1 ar
    17    20    22 1
    18    20    21 2
    19    20    19 2
    20    22    15 1
    21     9     2 1
    22     9    10 2
    23     2     4 1
    24     2     3 1
    25     4    26 2
    26     4     5 1
    27    26    10 1
    28     3     6 1
    29     3    27 1
    30     6    27 1
    31     7    28 1
    32    24    29 1
    33    11    30 1
    34    16    31 1
    35     1    32 1
    36    17    33 1
    37    23    34 1
    38    22    35 1
    39    15    36 1
    40    15    37 1
    41    15    38 1
    42    10    39 1
    43     3    40 1
    44     5    41 1
    45     5    42 1
    46     5    43 1
    47     6    44 1
    48     6    45 1
    49    27    46 1
    50    27    47 1
@<TRIPOS>SUBSTRUCTURE
     1 FRV         1 TEMP              0 ****  ****    0 ROOT
