@<TRIPOS>MOLECULE
molecule
   65    66     1     0     0
SMALL
bcc


@<TRIPOS>ATOM
      1 O6           0.0000     0.0000     0.0000 o          1 FRW      -0.831800
      2 C4           1.2140     0.0000     0.0000 c          1 FRW       0.878200
      3 O5           1.8870     0.0000     1.1660 o          1 FRW      -0.831800
      4 C3           1.9540    -0.0070    -1.2810 ca         1 FRW      -0.073600
      5 C2           1.2570    -0.0140    -2.4910 ca         1 FRW      -0.116500
      6 C1           1.9460    -0.0210    -3.6840 ca         1 FRW      -0.114500
      7 C7           3.3500    -0.0020    -1.2810 ca         1 FRW      -0.116500
      8 C8           4.0390    -0.0080    -2.4750 ca         1 FRW      -0.114500
      9 C9           3.3410    -0.0220    -3.6830 ca         1 FRW      -0.182600
     10 C10          4.0820    -0.0300    -4.9650 c          1 FRW       0.685700
     11 O11          3.4740    -0.0350    -6.0180 o          1 FRW      -0.649100
     12 N12          5.4290    -0.0300    -4.9650 ns         1 FRW      -0.572900
     13 C13          6.1620    -0.0380    -6.2330 c3         1 FRW       0.059700
     14 C14          6.3090     1.3960    -6.7460 c3         1 FRW      -0.091700
     15 C15          4.9230     2.0050    -6.9620 c3         1 FRW      -0.088600
     16 C16          7.0770     2.2300    -5.7180 c3         1 FRW      -0.088600
     17 C17          7.5280    -0.6380    -6.0210 c          1 FRW       0.684100
     18 O18          7.8570    -1.0210    -4.9190 o          1 FRW      -0.593100
     19 N19          8.3850    -0.7480    -7.0560 n          1 FRW      -0.481800
     20 C23          8.1150    -0.3240    -8.4420 c3         1 FRW       0.096000
     21 C22          9.0660    -1.1850    -9.3110 c3         1 FRW      -0.097400
     22 C21         10.3300    -1.2540    -8.4140 c3         1 FRW      -0.094400
     23 C20          9.7430    -1.3060    -6.9880 c3         1 FRW       0.048700
     24 C24         10.5900    -0.4810    -6.0530 c          1 FRW       0.653100
     25 O25         10.1110     0.4820    -5.4910 o          1 FRW      -0.569100
     26 N26         11.8780    -0.8140    -5.8400 ns         1 FRW      -0.583900
     27 C27         12.7000    -0.0130    -4.9300 c3         1 FRW       0.042700
     28 C28         12.4910    -0.4960    -3.4930 c3         1 FRW      -0.084700
     29 C29         12.8310    -1.9850    -3.4010 c3         1 FRW      -0.093100
     30 C30         13.4010     0.2940    -2.5510 c3         1 FRW      -0.093100
     31 C31         14.1530    -0.1630    -5.3030 c          1 FRW       0.515100
     32 O32         14.6950    -1.2360    -5.1990 o          1 FRW      -0.445100
     33 C33         14.9270     1.0290    -5.8060 c3         1 FRW       0.524900
     34 F36         16.2090     0.6220    -6.1910 f          1 FRW      -0.212300
     35 F34         14.2650     1.5860    -6.9050 f          1 FRW      -0.212300
     36 F35         15.0270     1.9830    -4.7870 f          1 FRW      -0.212300
     37 H2           0.1730    -0.0140    -2.4910 ha         1 FRW       0.154500
     38 H1           1.4050    -0.0290    -4.6220 ha         1 FRW       0.119500
     39 H7           3.8910     0.0080    -0.3430 ha         1 FRW       0.154500
     40 H8           5.1220    -0.0070    -2.4750 ha         1 FRW       0.119500
     41 HN12         5.9290    -0.0680    -4.0990 hn         1 FRW       0.341500
     42 H13          5.6180    -0.6280    -6.9610 h1         1 FRW       0.085700
     43 H14          6.8510     1.3910    -7.6840 hc         1 FRW       0.039700
     44 H15          4.3140     1.3210    -7.5420 hc         1 FRW       0.042867
     45 H15A         4.4520     2.1820    -6.0030 hc         1 FRW       0.042867
     46 H15B         5.0190     2.9430    -7.4960 hc         1 FRW       0.042867
     47 H16          7.4690     1.5790    -4.9460 hc         1 FRW       0.042867
     48 H16A         6.4100     2.9580    -5.2730 hc         1 FRW       0.042867
     49 H16B         7.8960     2.7420    -6.2080 hc         1 FRW       0.042867
     50 H23          7.0830    -0.5250    -8.7020 h1         1 FRW       0.057700
     51 H23A         8.3430     0.7280    -8.5640 h1         1 FRW       0.057700
     52 H22          9.2860    -0.6890   -10.2490 hc         1 FRW       0.057700
     53 H22A         8.6530    -2.1730    -9.4730 hc         1 FRW       0.057700
     54 H21         10.9390    -0.3670    -8.5440 hc         1 FRW       0.056200
     55 H21A        10.8990    -2.1520    -8.6250 hc         1 FRW       0.056200
     56 H20          9.7000    -2.3330    -6.6460 h1         1 FRW       0.079700
     57 HN26        12.2810    -1.5890    -6.3270 hn         1 FRW       0.318500
     58 H27         12.4130     1.0290    -5.0060 h1         1 FRW       0.098700
     59 H28         11.4570    -0.3440    -3.2080 hc         1 FRW       0.096700
     60 H29         12.6720    -2.4520    -4.3660 hc         1 FRW       0.040700
     61 H29A        12.1940    -2.4560    -2.6620 hc         1 FRW       0.040700
     62 H29B        13.8680    -2.1010    -3.1110 hc         1 FRW       0.040700
     63 H30         14.4360     0.0590    -2.7670 hc         1 FRW       0.040700
     64 H30A        13.1760     0.0290    -1.5250 hc         1 FRW       0.040700
     65 H30B        13.2340     1.3550    -2.6940 hc         1 FRW       0.040700
@<TRIPOS>BOND
     1     1     2 1
     2     2     3 1
     3     2     4 1
     4     4     5 ar
     5     4     7 ar
     6     5     6 ar
     7     6     9 ar
     8     7     8 ar
     9     8     9 ar
    10     9    10 1
    11    10    11 2
    12    10    12 1
    13    12    13 1
    14    13    14 1
    15    13    17 1
    16    14    15 1
    17    14    16 1
    18    17    18 2
    19    17    19 1
    20    19    20 1
    21    19    23 1
    22    20    21 1
    23    21    22 1
    24    22    23 1
    25    23    24 1
    26    24    25 2
    27    24    26 1
    28    26    27 1
    29    27    28 1
    30    27    31 1
    31    28    29 1
    32    28    30 1
    33    31    32 2
    34    31    33 1
    35    33    34 1
    36    33    35 1
    37    33    36 1
    38     5    37 1
    39     6    38 1
    40     7    39 1
    41     8    40 1
    42    12    41 1
    43    13    42 1
    44    14    43 1
    45    15    44 1
    46    15    45 1
    47    15    46 1
    48    16    47 1
    49    16    48 1
    50    16    49 1
    51    20    50 1
    52    20    51 1
    53    21    52 1
    54    21    53 1
    55    22    54 1
    56    22    55 1
    57    23    56 1
    58    26    57 1
    59    27    58 1
    60    28    59 1
    61    29    60 1
    62    29    61 1
    63    29    62 1
    64    30    63 1
    65    30    64 1
    66    30    65 1
@<TRIPOS>SUBSTRUCTURE
     1 FRW         1 TEMP              0 ****  ****    0 ROOT
