@<TRIPOS>MOLECULE
molecule
   49    52     1     0     0
SMALL
bcc


@<TRIPOS>ATOM
      1 O26          0.0000     0.0000     0.0000 o          1 FRX      -0.573100
      2 C22          1.2280     0.0000     0.0000 c          1 FRX       0.649100
      3 N22          2.0280     0.0000     1.1340 ns         1 FRX      -0.592900
      4 C24          1.4980     0.0010     2.4780 c3         1 FRX       0.111000
      5 C25          1.3120     1.4310     2.9510 c3         1 FRX       0.114400
      6 O25          2.5720     2.0900     2.9700 oh         1 FRX      -0.615800
      7 C21          2.0570     0.0020    -1.2590 c3         1 FRX       0.015000
      8 N17          1.1780     0.0060    -2.4250 n          1 FRX      -0.380000
      9 C19          0.7810     1.2370    -2.9740 c          1 FRX       0.711500
     10 O19          1.1810     2.3300    -2.5700 o          1 FRX      -0.607500
     11 C17          0.7570    -1.2500    -2.9790 ca         1 FRX       0.088600
     12 C31          0.9870    -2.4680    -2.3190 ca         1 FRX      -0.160000
     13 C30          0.5820    -3.6780    -2.8870 ca         1 FRX      -0.097000
     14 C29         -0.0460    -3.6930    -4.1270 ca         1 FRX      -0.150000
     15 C16          0.1190    -1.2760    -4.2310 ca         1 FRX      -0.123300
     16 C28         -0.2710    -2.4960    -4.8010 ca         1 FRX      -0.092000
     17 C15         -0.0630    -0.0000    -5.0010 c3         1 FRX      -0.045100
     18 C13         -0.3090     1.1440    -4.0370 c3         1 FRX       0.052700
     19 N11         -0.3780     2.4000    -4.7370 ns         1 FRX      -0.570900
     20 C11         -1.5700     2.9250    -5.2180 c          1 FRX       0.702700
     21 O13         -2.6680     2.3890    -5.1000 o          1 FRX      -0.604100
     22 C7          -1.4680     4.2180    -5.9420 cc         1 FRX      -0.151900
     23 N8          -2.5690     4.8270    -6.4560 na         1 FRX      -0.100100
     24 C3          -2.1130     5.9610    -7.0380 cc         1 FRX      -0.045400
     25 C4          -0.7860     6.0220    -6.8730 cd         1 FRX      -0.136000
     26 C6          -0.3260     4.9160    -6.1700 cd         1 FRX      -0.135000
     27 C5          -0.1670     7.1430    -7.4220 cd         1 FRX      -0.078000
     28 S2          -2.7490     7.2500    -7.8730 ss         1 FRX      -0.022800
     29 C1          -1.1450     7.9330    -8.0210 cc         1 FRX       0.015300
     30 Cl          -0.9350     9.4230    -8.8430 cl         1 FRX      -0.055400
     31 HN22         3.0220    -0.0020     1.0140 hn         1 FRX       0.319500
     32 H241         0.5430    -0.5100     2.4900 h1         1 FRX       0.062200
     33 H242         2.1890    -0.5100     3.1380 h1         1 FRX       0.062200
     34 H251         0.6420     1.9500     2.2770 h1         1 FRX       0.033700
     35 H252         0.8910     1.4290     3.9490 h1         1 FRX       0.033700
     36 HO25         2.4950     2.9020     3.4430 ho         1 FRX       0.406000
     37 H211         2.6820    -0.8820    -1.2800 h1         1 FRX       0.083700
     38 H212         2.6830     0.8860    -1.2760 h1         1 FRX       0.083700
     39 H31          1.4760    -2.4680    -1.3520 ha         1 FRX       0.133000
     40 H30          0.7590    -4.6080    -2.3600 ha         1 FRX       0.136000
     41 H29         -0.3590    -4.6320    -4.5680 ha         1 FRX       0.136000
     42 H28         -0.7610    -2.5060    -5.7680 ha         1 FRX       0.137000
     43 H151        -0.9130    -0.1000    -5.6650 hc         1 FRX       0.066700
     44 H152         0.8310     0.2020    -5.5780 hc         1 FRX       0.066700
     45 H13         -1.2560     0.9720    -3.5390 h1         1 FRX       0.114700
     46 HN11         0.4680     2.9140    -4.8840 hn         1 FRX       0.334500
     47 HN8         -3.4560     4.3950    -6.6230 hn         1 FRX       0.326700
     48 H6           0.5780     4.8710    -5.5740 ha         1 FRX       0.169000
     49 H5           0.8930     7.3630    -7.3880 ha         1 FRX       0.170000
@<TRIPOS>BOND
     1     1     2 2
     2     2     7 1
     3     2     3 1
     4     3     4 1
     5     3    31 1
     6     4     5 1
     7     4    32 1
     8     4    33 1
     9     5     6 1
    10     5    34 1
    11     5    35 1
    12     6    36 1
    13     7     8 1
    14     7    37 1
    15     7    38 1
    16     8    11 1
    17     8     9 1
    18     9    18 1
    19     9    10 2
    20    11    15 ar
    21    11    12 ar
    22    12    13 ar
    23    12    39 1
    24    13    14 ar
    25    13    40 1
    26    14    16 ar
    27    14    41 1
    28    15    16 ar
    29    15    17 1
    30    16    42 1
    31    17    18 1
    32    17    43 1
    33    17    44 1
    34    18    19 1
    35    18    45 1
    36    19    20 1
    37    19    46 1
    38    20    22 1
    39    20    21 2
    40    22    26 2
    41    22    23 1
    42    23    24 1
    43    23    47 1
    44    24    25 2
    45    24    28 1
    46    25    27 1
    47    25    26 1
    48    26    48 1
    49    27    29 2
    50    27    49 1
    51    28    29 1
    52    29    30 1
@<TRIPOS>SUBSTRUCTURE
     1 FRX         1 TEMP              0 ****  ****    0 ROOT
