@<TRIPOS>MOLECULE
FRY
   43    46     1     0     0
SMALL
bcc


@<TRIPOS>ATOM
      1 C1           0.0000     0.0000     0.0000 c3         1 FRY       0.119000
      2 C7           3.0470    -0.0010     3.1480 cc         1 FRY       0.302800
      3 C6           3.3440    -0.0030     1.8330 cd         1 FRY      -0.136300
      4 C5           1.5060     0.0000     0.0000 c2         1 FRY       0.000800
      5 C4           2.0750     0.0000     1.1990 cd         1 FRY      -0.237300
      6 C3           1.1240     0.0020     2.3020 cd         1 FRY       0.493600
      7 C10          4.0880    -0.0030     4.1910 c          1 FRY       0.508600
      8 C12          4.3840    -0.0030     6.6570 c3         1 FRY       0.018700
      9 C16          5.1540     0.3670     9.3500 ca         1 FRY      -0.102400
     10 C14          4.6780     1.4130     7.1140 c3         1 FRY      -0.122100
     11 C15          5.4320     1.3750     8.4120 ca         1 FRY      -0.042300
     12 C18          3.6750    -0.8130     7.7370 c          1 FRY       0.619500
     13 O19          2.7950    -1.6250     7.4460 o          1 FRY      -0.611500
     14 O22          5.4650    -3.0860     9.4460 o          1 FRY      -0.362100
     15 C21          4.7340    -2.6350    10.3230 c          1 FRY       0.296100
     16 N23          4.7070    -3.1140    11.6160 nz         1 FRY       0.173600
     17 N17          4.1910    -0.6490     9.0340 n          1 FRY      -0.011000
     18 C24          5.8150     0.4040    10.5880 ca         1 FRY      -0.146000
     19 C25          6.7360     1.4140    10.8790 ca         1 FRY      -0.071000
     20 C26          7.0020     2.4080     9.9440 ca         1 FRY      -0.075000
     21 C27          6.3470     2.3940     8.7160 ca         1 FRY      -0.064000
     22 N11          3.5660     0.0010     5.4720 ns         1 FRY      -0.207900
     23 O13          5.2760    -0.0080     3.8870 o          1 FRY      -0.601100
     24 N8           1.6890     0.0020     3.4730 nc         1 FRY      -0.585000
     25 S2          -0.5080     0.0010     1.7760 ss         1 FRY      -0.301400
     26 Cl          -0.6180     1.4440    -0.8230 cl         1 FRY       0.009600
     27 H1          -0.3300    -0.9350    -0.4360 h2         1 FRY       0.095700
     28 H6           3.4990     1.0520     1.6430 ha         1 FRY       0.158000
     29 H5           2.0850    -0.0010    -0.9160 ha         1 FRY       0.141000
     30 H12          5.3350    -0.4830     6.4640 h1         1 FRY       0.060700
     31 H141         5.5160     0.8700     6.6920 hc         1 FRY       0.091200
     32 H142         4.4850     2.3100     6.5380 hc         1 FRY       0.091200
     33 H201         2.7740    -1.9700     9.8130 h1         1 FRY       0.074700
     34 H202         3.6010    -0.9660    11.0110 h1         1 FRY       0.074700
     35 H231         4.1130    -3.9180    11.6620 hn         1 FRY       0.248133
     36 H232         4.3540    -2.4040    12.2270 hn         1 FRY       0.248133
     37 H24          5.6160    -0.3650    11.3240 ha         1 FRY       0.055000
     38 H25          7.2450     1.4230    11.8360 ha         1 FRY       0.112000
     39 H26          7.7160     3.1910    10.1700 ha         1 FRY       0.122000
     40 H27          6.5530     3.1670     7.9870 ha         1 FRY       0.124000
     41 HN11         2.5710     0.0060     5.5800 hn         1 FRY       0.227500
     42 C20          3.7240    -1.5340    10.0980 c3         1 FRY      -0.038000
     43 H233         5.6360    -3.3500    11.9040 hn         1 FRY       0.248133
@<TRIPOS>BOND
     1     1     4 1   
     2     1    25 1   
     3     1    26 1   
     4     1    27 1   
     5     2     3 2   
     6     2     7 1   
     7     2    24 1   
     8     3     5 1   
     9     3    28 1   
    10     4     5 2   
    11     4    29 1   
    12     5     6 1   
    13     6    24 2   
    14     6    25 1   
    15     7    22 1   
    16     7    23 2   
    17     8    10 1   
    18     8    12 1   
    19     8    22 1   
    20     8    30 1   
    21     9    11 ar  
    22     9    17 1   
    23     9    18 ar  
    24    10    11 1   
    25    10    31 1   
    26    10    32 1   
    27    11    21 ar  
    28    12    13 2   
    29    12    17 1   
    30    14    15 2   
    31    15    16 1   
    32    15    42 1   
    33    16    35 1   
    34    16    36 1   
    35    16    43 1   
    36    17    42 1   
    37    18    19 ar  
    38    18    37 1   
    39    19    20 ar  
    40    19    38 1   
    41    20    21 ar  
    42    20    39 1   
    43    21    40 1   
    44    22    41 1   
    45    33    42 1   
    46    34    42 1   
@<TRIPOS>SUBSTRUCTURE
     1 FRY         1 TEMP              0 ****  ****    0 ROOT
