@<TRIPOS>MOLECULE
molecule
   38    42     1     0     0
SMALL
bcc


@<TRIPOS>ATOM
      1 C1           0.0000     0.0000     0.0000 cc         1 FRZ      -0.191000
      2 C2           1.3500     0.0000     0.0000 cd         1 FRZ      -0.017300
      3 N3           2.0480     0.0000     1.1730 na         1 FRZ       0.204000
      4 C4           1.3780    -0.0000     2.3690 cd         1 FRZ      -0.006300
      5 C5          -0.0260     0.0010     2.3900 cd         1 FRZ      -0.130000
      6 C6          -0.7100     0.0010     1.2110 cc         1 FRZ      -0.098000
      7 N7           3.4210     0.0010     1.4470 nd         1 FRZ      -0.568100
      8 C8           3.6030     0.0070     2.7550 cc         1 FRZ       0.493200
      9 C9           2.3430     0.0010     3.3830 cc         1 FRZ      -0.395400
     10 C10          2.0880     0.0020     4.8410 ca         1 FRZ       0.410100
     11 C11          4.9160     0.0110     3.4460 ca         1 FRZ      -0.090900
     12 C12          5.1180    -0.7930     4.5660 ca         1 FRZ      -0.093500
     13 C13          6.3410    -0.7860     5.2060 ca         1 FRZ      -0.131500
     14 C14          7.3660     0.0160     4.7360 ca         1 FRZ      -0.117000
     15 C15          7.1700     0.8160     3.6230 ca         1 FRZ      -0.131500
     16 C16          5.9530     0.8120     2.9730 ca         1 FRZ      -0.093500
     17 C22          1.1600    -0.8860     5.3870 ca         1 FRZ      -0.135300
     18 C23          0.9670    -0.8410     6.7690 ca         1 FRZ      -0.341200
     19 C24          1.7060     0.0980     7.5230 ca         1 FRZ       0.404800
     20 N25          2.5640     0.8970     6.9030 nb         1 FRZ      -0.335000
     21 N26          2.7440     0.8480     5.6320 nb         1 FRZ      -0.258000
     22 C27          0.1190    -1.5590     7.7180 cc         1 FRZ       0.602800
     23 N28          0.3630    -1.0750     8.9070 nd         1 FRZ      -0.492100
     24 N29          1.3260    -0.0640     8.8270 na         1 FRZ      -0.145800
     25 N30         -0.7850    -2.5800     7.4110 nv         1 FRZ      -1.014800
     26 H1          -0.5390    -0.0000    -0.9400 ha         1 FRZ       0.154000
     27 H2           1.8850    -0.0000    -0.9420 h4         1 FRZ       0.173000
     28 H5          -0.5600     0.0010     3.3330 ha         1 FRZ       0.154000
     29 H6          -1.7930     0.0010     1.2090 ha         1 FRZ       0.143000
     30 H12          4.3160    -1.4210     4.9350 ha         1 FRZ       0.136500
     31 H13          6.4990    -1.4110     6.0770 ha         1 FRZ       0.130500
     32 H14          8.3230     0.0200     5.2420 ha         1 FRZ       0.128000
     33 H15          7.9770     1.4400     3.2580 ha         1 FRZ       0.130500
     34 H16          5.8010     1.4390     2.1020 ha         1 FRZ       0.136500
     35 H22          0.8480    -1.7570     4.8250 ha         1 FRZ       0.154000
     36 H29          1.6810     0.4600     9.6030 hn         1 FRZ       0.346700
     37 H301        -1.7430    -2.3600     7.2240 hn         1 FRZ       0.442800
     38 H302        -0.4800    -3.5330     7.4080 hn         1 FRZ       0.442800
@<TRIPOS>BOND
     1     1     2 2
     2     1     6 1
     3     1    26 1
     4     2     3 1
     5     2    27 1
     6     3     4 1
     7     3     7 1
     8     4     5 1
     9     4     9 2
    10     5     6 2
    11     5    28 1
    12     6    29 1
    13     7     8 2
    14     8     9 1
    15     8    11 1
    16     9    10 1
    17    10    17 ar
    18    10    21 ar
    19    11    12 ar
    20    11    16 ar
    21    12    13 ar
    22    12    30 1
    23    13    14 ar
    24    13    31 1
    25    14    15 ar
    26    14    32 1
    27    15    16 ar
    28    15    33 1
    29    16    34 1
    30    17    18 ar
    31    17    35 1
    32    18    19 ar
    33    18    22 1
    34    19    20 ar
    35    19    24 1
    36    20    21 ar
    37    22    23 2
    38    22    25 1
    39    23    24 1
    40    24    36 1
    41    25    37 1
    42    25    38 1
@<TRIPOS>SUBSTRUCTURE
     1 FRZ         1 TEMP              0 ****  ****    0 ROOT
