@<TRIPOS>MOLECULE
molecule
   59    62     1     0     0
SMALL
bcc


@<TRIPOS>ATOM
      1 N01          0.0000     0.0000     0.0000 nb         1 FS7      -0.668000
      2 C02          1.3320     0.0000     0.0000 ca         1 FS7       0.425600
      3 C03          2.0620     0.0000     1.2030 ca         1 FS7      -0.152300
      4 C04          3.4220    -0.0010     1.1680 ca         1 FS7      -0.121000
      5 C05          4.1100    -0.0020    -0.0430 ca         1 FS7      -0.112000
      6 C06          3.4380    -0.0020    -1.2280 ca         1 FS7      -0.121000
      7 C07          2.0370    -0.0030    -1.2290 ca         1 FS7      -0.121300
      8 C08          1.2950    -0.0050    -2.4350 ca         1 FS7      -0.080600
      9 C09          1.9780    -0.0060    -3.7450 c          1 FS7       0.657700
     10 O10          2.2600    -1.0590    -4.2820 o          1 FS7      -0.529000
     11 O11          2.2900     1.1600    -4.3450 os         1 FS7      -0.388900
     12 C12          2.9600     1.0820    -5.6300 c3         1 FS7       0.080100
     13 C13          1.9170     1.0530    -6.7490 c3         1 FS7      -0.113100
     14 C14          3.8500     2.2850    -5.8050 c          1 FS7       0.659100
     15 O15          3.9140     3.1250    -4.9330 o          1 FS7      -0.542100
     16 N16          4.5760     2.4270    -6.9320 ns         1 FS7      -0.483100
     17 C17          5.3280     3.5890    -7.1380 ca         1 FS7       0.165600
     18 C18          5.9370     4.2240    -6.0630 ca         1 FS7      -0.157000
     19 C19          6.6780     5.3700    -6.2690 ca         1 FS7      -0.008500
     20 C20          6.8150     5.8870    -7.5450 ca         1 FS7      -0.367500
     21 S21          7.7610     7.3510    -7.8030 sy         1 FS7       1.223200
     22 O22          7.2850     7.9270    -9.0130 o          1 FS7      -0.519800
     23 O23          7.7730     8.0450    -6.5630 o          1 FS7      -0.519800
     24 N24          9.3220     6.8810    -8.0930 nz         1 FS7      -0.806500
     25 C25          6.2100     5.2580    -8.6170 ca         1 FS7      -0.008500
     26 C26          5.4720     4.1070    -8.4180 ca         1 FS7      -0.157000
     27 C27         -0.0970    -0.0060    -2.3550 ca         1 FS7      -0.138600
     28 C28         -0.8710    -0.0210    -3.6460 c3         1 FS7      -0.040100
     29 C29         -2.3200     0.4020    -3.4090 c3         1 FS7      -0.074700
     30 C30         -3.1420     0.1600    -4.6760 c3         1 FS7      -0.088100
     31 C31         -2.8860    -0.4370    -2.2580 c3         1 FS7      -0.080400
     32 C32         -2.2140     0.0060    -0.9600 c3         1 FS7      -0.126700
     33 C33         -0.7130    -0.0010    -1.1100 ca         1 FS7       0.450600
     34 H1           1.5420     0.0010     2.1540 ha         1 FS7       0.156000
     35 H2           3.9790    -0.0010     2.0970 ha         1 FS7       0.139000
     36 H3           5.1940    -0.0030    -0.0430 ha         1 FS7       0.132000
     37 H4           3.9830    -0.0030    -2.1640 ha         1 FS7       0.129000
     38 H5           3.5580     0.1800    -5.6710 h1         1 FS7       0.091700
     39 H6           2.4160     1.0890    -7.7090 hc         1 FS7       0.059700
     40 H7           1.3370     0.1410    -6.6780 hc         1 FS7       0.059700
     41 H8           1.2580     1.9080    -6.6510 hc         1 FS7       0.059700
     42 H9           4.6120     1.6830    -7.6010 hn         1 FS7       0.344500
     43 H10          5.8300     3.8190    -5.0640 ha         1 FS7       0.181000
     44 H11          7.1540     5.8660    -5.4310 ha         1 FS7       0.158000
     45 H12          9.8900     7.6890    -8.2510 hn         1 FS7       0.490800
     46 H13          9.3490     6.2910    -8.9010 hn         1 FS7       0.490800
     47 H14          6.3210     5.6640    -9.6160 ha         1 FS7       0.158000
     48 H15          4.9990     3.6150    -9.2590 ha         1 FS7       0.181000
     49 H16         -0.4100     0.6660    -4.3460 hc         1 FS7       0.059200
     50 H17         -0.8560    -1.0230    -4.0590 hc         1 FS7       0.059200
     51 H18         -2.3520     1.4520    -3.1420 hc         1 FS7       0.058700
     52 H19         -2.7590     0.7790    -5.4790 hc         1 FS7       0.038033
     53 H20         -4.1790     0.4130    -4.4880 hc         1 FS7       0.038033
     54 H21         -3.0710    -0.8830    -4.9590 hc         1 FS7       0.038033
     55 H22         -3.9550    -0.2810    -2.1860 hc         1 FS7       0.054700
     56 H23         -2.6760    -1.4850    -2.4360 hc         1 FS7       0.054700
     57 H24         -2.4950    -0.6730    -0.1640 hc         1 FS7       0.070700
     58 H25         -2.5430     1.0080    -0.7140 hc         1 FS7       0.070700
     59 H243         9.6730     6.3820    -7.2990 hn         1 FS7       0.490800
@<TRIPOS>BOND
     1    23    21 2
     2    22    21 2
     3    21    24 1
     4    21    20 1
     5    20    19 ar
     6    20    25 ar
     7    19    18 ar
     8    25    26 ar
     9    18    17 ar
    10    26    17 ar
    11    17    16 1
    12    30    29 1
    13    29    31 1
    14    29    28 1
    15    15    14 2
    16    16    14 1
    17    31    32 1
    18    28    27 1
    19    10     9 2
    20    14    12 1
    21    32    33 1
    22    27    33 ar
    23    27     8 ar
    24    33     1 ar
    25     9     8 1
    26     9    11 1
    27     8     7 ar
    28    12    11 1
    29    12    13 1
    30     1     2 ar
    31     7     2 ar
    32     7     6 ar
    33     2     3 ar
    34     6     5 ar
    35     3     4 ar
    36     5     4 ar
    37     3    34 1
    38     4    35 1
    39     5    36 1
    40     6    37 1
    41    12    38 1
    42    13    39 1
    43    13    40 1
    44    13    41 1
    45    16    42 1
    46    18    43 1
    47    19    44 1
    48    24    45 1
    49    24    46 1
    50    25    47 1
    51    26    48 1
    52    28    49 1
    53    28    50 1
    54    29    51 1
    55    30    52 1
    56    30    53 1
    57    30    54 1
    58    31    55 1
    59    31    56 1
    60    32    57 1
    61    32    58 1
    62    59    24 1
@<TRIPOS>SUBSTRUCTURE
     1 FS7         1 TEMP              0 ****  ****    0 ROOT
