@<TRIPOS>MOLECULE
FS7
   59    62     1     0     0
SMALL
bcc


@<TRIPOS>ATOM
      1 N01          0.0000     0.0000     0.0000 nb         1 FS7      -0.543000
      2 C02          1.3320     0.0000     0.0000 ca         1 FS7       0.370600
      3 C03          2.0620     0.0000     1.2030 ca         1 FS7      -0.126300
      4 C04          3.4220    -0.0010     1.1680 ca         1 FS7      -0.097000
      5 C05          4.1100    -0.0020    -0.0430 ca         1 FS7      -0.080000
      6 C06          3.4380    -0.0020    -1.2280 ca         1 FS7      -0.100000
      7 C07          2.0370    -0.0030    -1.2290 ca         1 FS7      -0.109300
      8 C08          1.2950    -0.0050    -2.4350 ca         1 FS7      -0.105600
      9 C09          1.9780    -0.0060    -3.7450 c          1 FS7       0.731700
     10 O10          2.2600    -1.0590    -4.2820 o          1 FS7      -0.572000
     11 O11          2.2900     1.1600    -4.3450 os         1 FS7      -0.369900
     12 C12          2.9600     1.0820    -5.6300 c3         1 FS7       0.114100
     13 C13          1.9170     1.0530    -6.7490 c3         1 FS7      -0.019100
     14 C14          3.8500     2.2850    -5.8050 c          1 FS7       0.559100
     15 O15          3.9140     3.1250    -4.9330 o          1 FS7      -0.581100
     16 N16          4.5760     2.4270    -6.9320 ns         1 FS7      -0.046100
     17 C17          5.3280     3.5890    -7.1380 ca         1 FS7       0.023600
     18 C18          5.9370     4.2240    -6.0630 ca         1 FS7      -0.140000
     19 C19          6.6780     5.3700    -6.2690 ca         1 FS7       0.036000
     20 C20          6.8150     5.8870    -7.5450 ca         1 FS7      -0.254500
     21 S21          7.7610     7.3510    -7.8030 sy         1 FS7       0.932200
     22 O22          7.2850     7.9270    -9.0130 o          1 FS7      -0.495800
     23 O23          7.7730     8.0450    -6.5630 o          1 FS7      -0.495800
     24 N24          9.3220     6.8810    -8.0930 nz         1 FS7      -0.133500
     25 C25          6.2100     5.2580    -8.6170 ca         1 FS7       0.036000
     26 C26          5.4720     4.1070    -8.4180 ca         1 FS7      -0.140000
     27 C27         -0.0970    -0.0060    -2.3550 ca         1 FS7      -0.130600
     28 C28         -0.8710    -0.0210    -3.6460 c3         1 FS7       0.023900
     29 C29         -2.3200     0.4020    -3.4090 c3         1 FS7      -0.054700
     30 C30         -3.1420     0.1600    -4.6760 c3         1 FS7       0.009900
     31 C31         -2.8860    -0.4370    -2.2580 c3         1 FS7      -0.027400
     32 C32         -2.2140     0.0060    -0.9600 c3         1 FS7      -0.066700
     33 C33         -0.7130    -0.0010    -1.1100 ca         1 FS7       0.388600
     34 H1           1.5420     0.0010     2.1540 ha         1 FS7       0.122000
     35 H2           3.9790    -0.0010     2.0970 ha         1 FS7       0.108000
     36 H3           5.1940    -0.0030    -0.0430 ha         1 FS7       0.101000
     37 H4           3.9830    -0.0030    -2.1640 ha         1 FS7       0.103000
     38 H5           3.5580     0.1800    -5.6710 h1         1 FS7       0.054700
     39 H6           2.4160     1.0890    -7.7090 hc         1 FS7       0.022367
     40 H7           1.3370     0.1410    -6.6780 hc         1 FS7       0.022367
     41 H8           1.2580     1.9080    -6.6510 hc         1 FS7       0.022367
     42 H9           4.6120     1.6830    -7.6010 hn         1 FS7       0.189500
     43 H10          5.8300     3.8190    -5.0640 ha         1 FS7       0.152000
     44 H11          7.1540     5.8660    -5.4310 ha         1 FS7       0.125500
     45 H12          9.8900     7.6890    -8.2510 hn         1 FS7       0.312467
     46 H13          9.3490     6.2910    -8.9010 hn         1 FS7       0.312467
     47 H14          6.3210     5.6640    -9.6160 ha         1 FS7       0.125500
     48 H15          4.9990     3.6150    -9.2590 ha         1 FS7       0.152000
     49 H16         -0.4100     0.6660    -4.3460 hc         1 FS7       0.029200
     50 H17         -0.8560    -1.0230    -4.0590 hc         1 FS7       0.029200
     51 H18         -2.3520     1.4520    -3.1420 hc         1 FS7       0.034700
     52 H19         -2.7590     0.7790    -5.4790 hc         1 FS7       0.004700
     53 H20         -4.1790     0.4130    -4.4880 hc         1 FS7       0.004700
     54 H21         -3.0710    -0.8830    -4.9590 hc         1 FS7       0.004700
     55 H22         -3.9550    -0.2810    -2.1860 hc         1 FS7       0.024700
     56 H23         -2.6760    -1.4850    -2.4360 hc         1 FS7       0.024700
     57 H24         -2.4950    -0.6730    -0.1640 hc         1 FS7       0.034200
     58 H25         -2.5430     1.0080    -0.7140 hc         1 FS7       0.034200
     59 H243         9.6730     6.3820    -7.2990 hn         1 FS7       0.312467
@<TRIPOS>BOND
     1     1     2 ar  
     2     1    33 ar  
     3     2     3 ar  
     4     2     7 ar  
     5     3     4 ar  
     6     3    34 1   
     7     4     5 ar  
     8     4    35 1   
     9     5     6 ar  
    10     5    36 1   
    11     6     7 ar  
    12     6    37 1   
    13     7     8 ar  
    14     8     9 1   
    15     8    27 ar  
    16     9    10 2   
    17     9    11 1   
    18    11    12 1   
    19    12    13 1   
    20    12    14 1   
    21    12    38 1   
    22    13    39 1   
    23    13    40 1   
    24    13    41 1   
    25    14    15 2   
    26    14    16 1   
    27    16    17 1   
    28    16    42 1   
    29    17    18 ar  
    30    17    26 ar  
    31    18    19 ar  
    32    18    43 1   
    33    19    20 ar  
    34    19    44 1   
    35    20    21 1   
    36    20    25 ar  
    37    21    22 2   
    38    21    23 2   
    39    21    24 1   
    40    24    45 1   
    41    24    46 1   
    42    24    59 1   
    43    25    26 ar  
    44    25    47 1   
    45    26    48 1   
    46    27    28 1   
    47    27    33 ar  
    48    28    29 1   
    49    28    49 1   
    50    28    50 1   
    51    29    30 1   
    52    29    31 1   
    53    29    51 1   
    54    30    52 1   
    55    30    53 1   
    56    30    54 1   
    57    31    32 1   
    58    31    55 1   
    59    31    56 1   
    60    32    33 1   
    61    32    57 1   
    62    32    58 1   
@<TRIPOS>SUBSTRUCTURE
     1 FS7         1 TEMP              0 ****  ****    0 ROOT
