@<TRIPOS>MOLECULE
molecule
   66    70     1     0     0
SMALL
bcc


@<TRIPOS>ATOM
      1 OAA          0.0000     0.0000     0.0000 o          1 FS8      -0.597100
      2 OAC         -5.2080    -1.2280   -17.3680 oh         1 FS8      -0.603800
      3 OAD         -3.7080    -1.2530   -14.9170 oh         1 FS8      -0.590800
      4 CAF          3.3390    -0.0010     3.6790 ca         1 FS8      -0.101000
      5 CAG          1.9550     0.0000     3.6820 ca         1 FS8      -0.137500
      6 CAH          4.0340    -0.0010     2.4820 ca         1 FS8      -0.137500
      7 CAI         -0.1820    -0.2720    -4.7790 ca         1 FS8      -0.175000
      8 CAJ         -2.9520    -0.8280    -5.0630 ca         1 FS8      -0.184000
      9 CAK          1.2590     0.0000     2.4910 ca         1 FS8      -0.083000
     10 CAL          3.3500    -0.0010     1.2840 ca         1 FS8      -0.083000
     11 CAM          1.0580    -0.8670    -4.6470 ca         1 FS8      -0.118000
     12 CAN         -6.2490     0.8850   -11.4020 ca         1 FS8      -0.207000
     13 CAO         -6.6020     1.5170   -10.2240 ca         1 FS8      -0.090000
     14 CAP         -3.8360    -1.2820    -5.9930 ca         1 FS8      -0.054000
     15 CAQ         -3.7550     1.4080    -5.4350 ca         1 FS8      -0.204000
     16 CAR         -0.0520     0.5080    -2.5090 ca         1 FS8      -0.165000
     17 CAS         -5.4270    -1.0070   -10.1730 ca         1 FS8      -0.114000
     18 CAT         -5.5290    -0.3950   -16.2520 c3         1 FS8       0.130400
     19 CAU         -6.7310     1.5690    -7.7290 c3         1 FS8      -0.035100
     20 CAV         -5.5350     2.0500    -6.9540 c3         1 FS8      -0.033100
     21 CAW         -5.5840    -0.2660   -13.7570 c3         1 FS8       0.127400
     22 NAX          1.8900    -0.0010    -1.1670 ns         1 FS8      -0.471100
     23 CBA          1.2160     0.0000     0.0000 c          1 FS8       0.679700
     24 CBB         -5.5830    -0.9930    -7.6760 c          1 FS8       0.596300
     25 CBC         -2.9010     0.5360    -4.7820 ca         1 FS8       0.196600
     26 CBD         -0.7400     0.4170    -3.7100 ca         1 FS8       0.177600
     27 CBE          1.7480    -0.7790    -3.4510 ca         1 FS8       0.060900
     28 CBF         -5.6610    -0.3720   -11.3840 ca         1 FS8       0.140100
     29 CBG          1.9540    -0.0000     1.2800 ca         1 FS8      -0.151600
     30 CBH         -6.3670     0.8870    -9.0120 ca         1 FS8      -0.095300
     31 CBI         -4.6670     0.9610    -6.3760 ca         1 FS8       0.000700
     32 CBJ          1.1930    -0.0900    -2.3780 ca         1 FS8       0.056600
     33 CBK         -4.6990    -0.3940    -6.6670 ca         1 FS8      -0.188600
     34 CBL         -5.7910    -0.3620    -8.9930 ca         1 FS8      -0.108600
     35 CBM         -5.1280    -1.1010   -14.9560 c3         1 FS8       0.153100
     36 HOAC        -5.5500    -0.8420   -18.1570 ho         1 FS8       0.407000
     37 HAF          3.8800    -0.0010     4.6170 ha         1 FS8       0.134000
     38 HAG          1.4160     0.0000     4.6220 ha         1 FS8       0.136500
     39 HAH          5.1170    -0.0020     2.4870 ha         1 FS8       0.136500
     40 HAI         -0.7190    -0.3440    -5.7170 ha         1 FS8       0.152000
     41 HAJ         -2.2870    -1.5170    -4.5570 ha         1 FS8       0.152000
     42 HAK          0.1760     0.0010     2.4950 ha         1 FS8       0.141500
     43 HAL          3.8960    -0.0020     0.3480 ha         1 FS8       0.141500
     44 HAM          1.4910    -1.4040    -5.4830 ha         1 FS8       0.149000
     45 HAN         -6.4310     1.3780   -12.3500 ha         1 FS8       0.134000
     46 HAO         -7.0610     2.4980   -10.2480 ha         1 FS8       0.134000
     47 HAP         -3.8790    -2.3410    -6.2160 ha         1 FS8       0.148000
     48 HAQ         -3.7060     2.4660    -5.2070 ha         1 FS8       0.133000
     49 HAR         -0.4860     1.0450    -1.6740 ha         1 FS8       0.174000
     50 HAS         -4.9680    -1.9880   -10.1450 ha         1 FS8       0.156000
     51 HAT         -6.5950    -0.2000   -16.2420 h1         1 FS8       0.030200
     52 HATA        -4.9910     0.5420   -16.3340 h1         1 FS8       0.030200
     53 HAU         -7.3440     2.4290    -7.9690 hc         1 FS8       0.057200
     54 HAUA        -7.2680     0.8580    -7.1120 hc         1 FS8       0.057200
     55 HAV         -5.8870     2.6700    -6.1380 hc         1 FS8       0.057700
     56 HAVA        -4.9250     2.6560    -7.6120 hc         1 FS8       0.057700
     57 HAW         -6.6480    -0.0750   -13.8340 h1         1 FS8       0.044700
     58 HAWA        -5.0480     0.6760   -13.7490 h1         1 FS8       0.044700
     59 HNAX         2.8870     0.0880    -1.1690 hn         1 FS8       0.334500
     60 HNAY        -2.2440     1.7930    -3.2610 hn         1 FS8       0.453800
     61 HBM         -5.5970    -2.0760   -14.9160 h1         1 FS8       0.056700
     62 FAE          2.9590    -1.3620    -3.3260 f          1 FS8      -0.146900
     63 NAY         -1.9950     1.0190    -3.8440 nu         1 FS8      -0.678000
     64 OAB         -6.1580    -2.0330    -7.4190 o          1 FS8      -0.514100
     65 OAZ         -5.3130    -0.9790   -12.5500 os         1 FS8      -0.321900
     66 HOAD        -3.4900    -2.1700   -14.9060 ho         1 FS8       0.414000
@<TRIPOS>BOND
     1     1    23 2
     2    64    24 2
     3     2    18 1
     4     3    35 1
     5    62    27 1
     6     4     5 ar
     7     4     6 ar
     8     5     9 ar
     9     6    10 ar
    10     7    11 ar
    11     7    26 ar
    12     8    14 ar
    13     8    25 ar
    14     9    29 ar
    15    10    29 ar
    16    11    27 ar
    17    12    13 ar
    18    12    28 ar
    19    13    30 ar
    20    14    33 ar
    21    15    25 ar
    22    15    31 ar
    23    16    26 ar
    24    16    32 ar
    25    17    28 ar
    26    17    34 ar
    27    18    35 1
    28    19    20 1
    29    19    30 1
    30    20    31 1
    31    21    65 1
    32    21    35 1
    33    22    23 1
    34    22    32 1
    35    63    25 1
    36    63    26 1
    37    65    28 1
    38    23    29 1
    39    24    33 1
    40    24    34 1
    41    27    32 ar
    42    30    34 ar
    43    31    33 ar
    44     2    36 1
    45     3    66 1
    46     4    37 1
    47     5    38 1
    48     6    39 1
    49     7    40 1
    50     8    41 1
    51     9    42 1
    52    10    43 1
    53    11    44 1
    54    12    45 1
    55    13    46 1
    56    14    47 1
    57    15    48 1
    58    16    49 1
    59    17    50 1
    60    18    51 1
    61    18    52 1
    62    19    53 1
    63    19    54 1
    64    20    55 1
    65    20    56 1
    66    21    57 1
    67    21    58 1
    68    22    59 1
    69    63    60 1
    70    35    61 1
@<TRIPOS>SUBSTRUCTURE
     1 FS8         1 TEMP              0 ****  ****    0 ROOT
