@<TRIPOS>MOLECULE
FS8
   66    70     1     0     0
SMALL
bcc


@<TRIPOS>ATOM
      1 OAA          0.0000     0.0000     0.0000 o          1 FS8      -0.641100
      2 OAC         -5.2080    -1.2280   -17.3680 oh         1 FS8      -0.586800
      3 OAD         -3.7080    -1.2530   -14.9170 oh         1 FS8      -0.573800
      4 CAF          3.3390    -0.0010     3.6790 ca         1 FS8      -0.073000
      5 CAG          1.9550     0.0000     3.6820 ca         1 FS8      -0.110500
      6 CAH          4.0340    -0.0010     2.4820 ca         1 FS8      -0.110500
      7 CAI         -0.1820    -0.2720    -4.7790 ca         1 FS8      -0.155000
      8 CAJ         -2.9520    -0.8280    -5.0630 ca         1 FS8      -0.169000
      9 CAK          1.2590     0.0000     2.4910 ca         1 FS8      -0.055500
     10 CAL          3.3500    -0.0010     1.2840 ca         1 FS8      -0.055500
     11 CAM          1.0580    -0.8670    -4.6470 ca         1 FS8      -0.077000
     12 CAN         -6.2490     0.8850   -11.4020 ca         1 FS8      -0.197000
     13 CAO         -6.6020     1.5170   -10.2240 ca         1 FS8      -0.057000
     14 CAP         -3.8360    -1.2820    -5.9930 ca         1 FS8      -0.018000
     15 CAQ         -3.7550     1.4080    -5.4350 ca         1 FS8      -0.186000
     16 CAR         -0.0520     0.5080    -2.5090 ca         1 FS8      -0.145000
     17 CAS         -5.4270    -1.0070   -10.1730 ca         1 FS8      -0.092000
     18 CAT         -5.5290    -0.3950   -16.2520 c3         1 FS8       0.209400
     19 CAU         -6.7310     1.5690    -7.7290 c3         1 FS8       0.027900
     20 CAV         -5.5350     2.0500    -6.9540 c3         1 FS8       0.032900
     21 CAW         -5.5840    -0.2660   -13.7570 c3         1 FS8       0.185400
     22 NAX          1.8900    -0.0010    -1.1670 ns         1 FS8      -0.030100
     23 CBA          1.2160     0.0000     0.0000 c          1 FS8       0.591700
     24 CBB         -5.5830    -0.9930    -7.6760 c          1 FS8       0.655300
     25 CBC         -2.9010     0.5360    -4.7820 ca         1 FS8       0.046600
     26 CBD         -0.7400     0.4170    -3.7100 ca         1 FS8       0.032600
     27 CBE          1.7480    -0.7790    -3.4510 ca         1 FS8       0.030900
     28 CBF         -5.6610    -0.3720   -11.3840 ca         1 FS8       0.147100
     29 CBG          1.9540    -0.0000     1.2800 ca         1 FS8      -0.165600
     30 CBH         -6.3670     0.8870    -9.0120 ca         1 FS8      -0.105300
     31 CBI         -4.6670     0.9610    -6.3760 ca         1 FS8       0.002700
     32 CBJ          1.1930    -0.0900    -2.3780 ca         1 FS8      -0.076400
     33 CBK         -4.6990    -0.3940    -6.6670 ca         1 FS8      -0.195600
     34 CBL         -5.7910    -0.3620    -8.9930 ca         1 FS8      -0.111600
     35 CBM         -5.1280    -1.1010   -14.9560 c3         1 FS8       0.178100
     36 HOAC        -5.5500    -0.8420   -18.1570 ho         1 FS8       0.392000
     37 HAF          3.8800    -0.0010     4.6170 ha         1 FS8       0.103000
     38 HAG          1.4160     0.0000     4.6220 ha         1 FS8       0.107500
     39 HAH          5.1170    -0.0020     2.4870 ha         1 FS8       0.107500
     40 HAI         -0.7190    -0.3440    -5.7170 ha         1 FS8       0.131000
     41 HAJ         -2.2870    -1.5170    -4.5570 ha         1 FS8       0.131000
     42 HAK          0.1760     0.0010     2.4950 ha         1 FS8       0.114500
     43 HAL          3.8960    -0.0020     0.3480 ha         1 FS8       0.114500
     44 HAM          1.4910    -1.4040    -5.4830 ha         1 FS8       0.118000
     45 HAN         -6.4310     1.3780   -12.3500 ha         1 FS8       0.118000
     46 HAO         -7.0610     2.4980   -10.2480 ha         1 FS8       0.106000
     47 HAP         -3.8790    -2.3410    -6.2160 ha         1 FS8       0.116000
     48 HAQ         -3.7060     2.4660    -5.2070 ha         1 FS8       0.112000
     49 HAR         -0.4860     1.0450    -1.6740 ha         1 FS8       0.157000
     50 HAS         -4.9680    -1.9880   -10.1450 ha         1 FS8       0.125000
     51 HAT         -6.5950    -0.2000   -16.2420 h1         1 FS8      -0.006800
     52 HATA        -4.9910     0.5420   -16.3340 h1         1 FS8      -0.006800
     53 HAU         -7.3440     2.4290    -7.9690 hc         1 FS8       0.025700
     54 HAUA        -7.2680     0.8580    -7.1120 hc         1 FS8       0.025700
     55 HAV         -5.8870     2.6700    -6.1380 hc         1 FS8       0.025200
     56 HAVA        -4.9250     2.6560    -7.6120 hc         1 FS8       0.025200
     57 HAW         -6.6480    -0.0750   -13.8340 h1         1 FS8       0.009700
     58 HAWA        -5.0480     0.6760   -13.7490 h1         1 FS8       0.009700
     59 HNAX         2.8870     0.0880    -1.1690 hn         1 FS8       0.181500
     60 HNAY        -2.2440     1.7930    -3.2610 hn         1 FS8       0.289800
     61 HBM         -5.5970    -2.0760   -14.9160 h1         1 FS8       0.017700
     62 FAE          2.9590    -1.3620    -3.3260 f          1 FS8      -0.129900
     63 NAY         -1.9950     1.0190    -3.8440 nu         1 FS8      -0.218000
     64 OAB         -6.1580    -2.0330    -7.4190 o          1 FS8      -0.551100
     65 OAZ         -5.3130    -0.9790   -12.5500 os         1 FS8      -0.297900
     66 HOAD        -3.4900    -2.1700   -14.9060 ho         1 FS8       0.399000
@<TRIPOS>BOND
     1     1    23 2   
     2     2    18 1   
     3     2    36 1   
     4     3    35 1   
     5     3    66 1   
     6     4     5 ar  
     7     4     6 ar  
     8     4    37 1   
     9     5     9 ar  
    10     5    38 1   
    11     6    10 ar  
    12     6    39 1   
    13     7    11 ar  
    14     7    26 ar  
    15     7    40 1   
    16     8    14 ar  
    17     8    25 ar  
    18     8    41 1   
    19     9    29 ar  
    20     9    42 1   
    21    10    29 ar  
    22    10    43 1   
    23    11    27 ar  
    24    11    44 1   
    25    12    13 ar  
    26    12    28 ar  
    27    12    45 1   
    28    13    30 ar  
    29    13    46 1   
    30    14    33 ar  
    31    14    47 1   
    32    15    25 ar  
    33    15    31 ar  
    34    15    48 1   
    35    16    26 ar  
    36    16    32 ar  
    37    16    49 1   
    38    17    28 ar  
    39    17    34 ar  
    40    17    50 1   
    41    18    35 1   
    42    18    51 1   
    43    18    52 1   
    44    19    20 1   
    45    19    30 1   
    46    19    53 1   
    47    19    54 1   
    48    20    31 1   
    49    20    55 1   
    50    20    56 1   
    51    21    35 1   
    52    21    57 1   
    53    21    58 1   
    54    21    65 1   
    55    22    23 1   
    56    22    32 1   
    57    22    59 1   
    58    23    29 1   
    59    24    33 1   
    60    24    34 1   
    61    24    64 2   
    62    25    63 1   
    63    26    63 1   
    64    27    32 ar  
    65    27    62 1   
    66    28    65 1   
    67    30    34 ar  
    68    31    33 ar  
    69    35    61 1   
    70    60    63 1   
@<TRIPOS>SUBSTRUCTURE
     1 FS8         1 TEMP              0 ****  ****    0 ROOT
