@<TRIPOS>MOLECULE
molecule
   45    48     1     0     0
SMALL
bcc


@<TRIPOS>ATOM
      1 N01          0.0000     0.0000     0.0000 nb         1 FS9      -0.771000
      2 C02          1.3160     0.0000     0.0000 ca         1 FS9       0.723900
      3 N03          2.0250     0.0000     1.1150 nb         1 FS9      -0.812000
      4 C04          1.4350    -0.0000     2.3060 ca         1 FS9       0.713200
      5 N05          2.1850    -0.0000     3.4670 nh         1 FS9      -0.681300
      6 C06          1.8230     1.1320     4.3290 c3         1 FS9       0.169300
      7 C07          2.5650     1.0200     5.6620 c3         1 FS9      -0.070400
      8 C08          4.0740     1.0140     5.4030 c3         1 FS9      -0.151700
      9 C09          4.8080     0.8430     6.7070 c          1 FS9       0.663100
     10 O10          4.1890     0.7360     7.7430 o          1 FS9      -0.584100
     11 N11          6.1560     0.8100     6.7220 ns         1 FS9      -0.481100
     12 C12          6.8410     0.7470     7.9400 ca         1 FS9       0.052600
     13 C13          6.3100     0.0270     9.0010 ca         1 FS9      -0.078000
     14 C14          6.9900    -0.0370    10.2010 ca         1 FS9      -0.164300
     15 C15          6.4160    -0.8200    11.3540 c3         1 FS9       0.676200
     16 F16          7.2780    -0.7370    12.4510 f          1 FS9      -0.222300
     17 F17          5.1680    -0.2900    11.7010 f          1 FS9      -0.222300
     18 F18          6.2640    -2.1590    10.9780 f          1 FS9      -0.222300
     19 C19          8.2010     0.6170    10.3460 ca         1 FS9      -0.103000
     20 C20          8.7320     1.3360     9.2920 ca         1 FS9      -0.117000
     21 C21          8.0560     1.4030     8.0890 ca         1 FS9      -0.139000
     22 C22          4.4180    -0.1470     4.4650 c3         1 FS9      -0.070400
     23 C23          3.6230     0.0010     3.1660 c3         1 FS9       0.169300
     24 C24          0.0300    -0.0010     2.3570 ca         1 FS9      -0.169200
     25 N25         -0.8870    -0.0030     3.3540 nc         1 FS9      -0.576100
     26 C26         -2.0830    -0.0030     2.8420 cd         1 FS9       0.421700
     27 N27         -2.0070    -0.0020     1.4810 na         1 FS9      -0.359000
     28 C28         -0.6780    -0.0010     1.1430 ca         1 FS9       0.455800
     29 H1           1.8380     0.0000    -0.9500 h5         1 FS9       0.063100
     30 H2           0.7550     1.1190     4.5090 h1         1 FS9       0.059450
     31 H3           2.1000     2.0580     3.8400 h1         1 FS9       0.059450
     32 H4           2.2810     0.0980     6.1560 hc         1 FS9       0.064200
     33 H5           2.3100     1.8660     6.2890 hc         1 FS9       0.064200
     34 H6           4.3630     1.9500     4.9390 hc         1 FS9       0.066700
     35 H7           6.6680     0.8630     5.8630 hn         1 FS9       0.326500
     36 H8           5.3930    -0.5350     8.8690 ha         1 FS9       0.176000
     37 H9           8.7330     0.5660    11.2880 ha         1 FS9       0.150000
     38 H10          9.6800     1.8470     9.4080 ha         1 FS9       0.140000
     39 H11          8.4730     1.9670     7.2640 ha         1 FS9       0.134000
     40 H12          4.1600    -1.0840     4.9410 hc         1 FS9       0.064200
     41 H13          5.4780    -0.1280     4.2420 hc         1 FS9       0.064200
     42 H14          3.8530    -0.8290     2.5080 h1         1 FS9       0.059450
     43 H15          3.8890     0.9340     2.6850 h1         1 FS9       0.059450
     44 H17         -3.0030    -0.0040     3.4140 h5         1 FS9       0.082800
     45 H18         -2.7800    -0.0030     0.8450 hn         1 FS9       0.315700
@<TRIPOS>BOND
     1    18    15 1
     2    17    15 1
     3    15    14 1
     4    15    16 1
     5    14    19 ar
     6    14    13 ar
     7    19    20 ar
     8    13    12 ar
     9    20    21 ar
    10    10     9 2
    11    12    21 ar
    12    12    11 1
    13     9    11 1
    14     9     8 1
    15     7     8 1
    16     7     6 1
    17     8    22 1
    18     6     5 1
    19    25    26 2
    20    25    24 1
    21    26    27 1
    22    22    23 1
    23     5    23 1
    24     5     4 1
    25    24     4 ar
    26    24    28 ar
    27    27    28 1
    28     4     3 ar
    29    28     1 ar
    30     3     2 ar
    31     1     2 ar
    32     2    29 1
    33     6    30 1
    34     6    31 1
    35     7    32 1
    36     7    33 1
    37     8    34 1
    38    11    35 1
    39    13    36 1
    40    19    37 1
    41    20    38 1
    42    21    39 1
    43    22    40 1
    44    22    41 1
    45    23    42 1
    46    23    43 1
    47    26    44 1
    48    27    45 1
@<TRIPOS>SUBSTRUCTURE
     1 FS9         1 TEMP              0 ****  ****    0 ROOT
