@<TRIPOS>MOLECULE
FS9
   45    48     1     0     0
SMALL
bcc


@<TRIPOS>ATOM
      1 N01          0.0000     0.0000     0.0000 nb         1 FS9      -0.645000
      2 C02          1.3160     0.0000     0.0000 ca         1 FS9       0.668900
      3 N03          2.0250     0.0000     1.1150 nb         1 FS9      -0.712000
      4 C04          1.4350    -0.0000     2.3060 ca         1 FS9       0.589200
      5 N05          2.1850    -0.0000     3.4670 nh         1 FS9      -0.432300
      6 C06          1.8230     1.1320     4.3290 c3         1 FS9       0.133300
      7 C07          2.5650     1.0200     5.6620 c3         1 FS9      -0.016400
      8 C08          4.0740     1.0140     5.4030 c3         1 FS9      -0.130700
      9 C09          4.8080     0.8430     6.7070 c          1 FS9       0.568100
     10 O10          4.1890     0.7360     7.7430 o          1 FS9      -0.622100
     11 N11          6.1560     0.8100     6.7220 ns         1 FS9      -0.041100
     12 C12          6.8410     0.7470     7.9400 ca         1 FS9      -0.093400
     13 C13          6.3100     0.0270     9.0010 ca         1 FS9      -0.041000
     14 C14          6.9900    -0.0370    10.2010 ca         1 FS9      -0.191300
     15 C15          6.4160    -0.8200    11.3540 c3         1 FS9       0.641200
     16 F16          7.2780    -0.7370    12.4510 f          1 FS9      -0.207300
     17 F17          5.1680    -0.2900    11.7010 f          1 FS9      -0.207300
     18 F18          6.2640    -2.1590    10.9780 f          1 FS9      -0.207300
     19 C19          8.2010     0.6170    10.3460 ca         1 FS9      -0.063000
     20 C20          8.7320     1.3360     9.2920 ca         1 FS9      -0.089000
     21 C21          8.0560     1.4030     8.0890 ca         1 FS9      -0.104000
     22 C22          4.4180    -0.1470     4.4650 c3         1 FS9      -0.016400
     23 C23          3.6230     0.0010     3.1660 c3         1 FS9       0.133300
     24 C24          0.0300    -0.0010     2.3570 ca         1 FS9      -0.199200
     25 N25         -0.8870    -0.0030     3.3540 nc         1 FS9      -0.480100
     26 C26         -2.0830    -0.0030     2.8420 cd         1 FS9       0.230700
     27 N27         -2.0070    -0.0020     1.4810 na         1 FS9       0.178000
     28 C28         -0.6780    -0.0010     1.1430 ca         1 FS9       0.228800
     29 H1           1.8380     0.0000    -0.9500 h5         1 FS9      -0.000900
     30 H2           0.7550     1.1190     4.5090 h1         1 FS9       0.031950
     31 H3           2.1000     2.0580     3.8400 h1         1 FS9       0.031950
     32 H4           2.2810     0.0980     6.1560 hc         1 FS9       0.032450
     33 H5           2.3100     1.8660     6.2890 hc         1 FS9       0.032450
     34 H6           4.3630     1.9500     4.9390 hc         1 FS9       0.039700
     35 H7           6.6680     0.8630     5.8630 hn         1 FS9       0.172500
     36 H8           5.3930    -0.5350     8.8690 ha         1 FS9       0.153000
     37 H9           8.7330     0.5660    11.2880 ha         1 FS9       0.121000
     38 H10          9.6800     1.8470     9.4080 ha         1 FS9       0.109000
     39 H11          8.4730     1.9670     7.2640 ha         1 FS9       0.107000
     40 H12          4.1600    -1.0840     4.9410 hc         1 FS9       0.032450
     41 H13          5.4780    -0.1280     4.2420 hc         1 FS9       0.032450
     42 H14          3.8530    -0.8290     2.5080 h1         1 FS9       0.031950
     43 H15          3.8890     0.9340     2.6850 h1         1 FS9       0.031950
     44 H17         -3.0030    -0.0040     3.4140 h5         1 FS9       0.033800
     45 H18         -2.7800    -0.0030     0.8450 hn         1 FS9       0.134700
@<TRIPOS>BOND
     1     1     2 ar  
     2     1    28 ar  
     3     2     3 ar  
     4     2    29 1   
     5     3     4 ar  
     6     4     5 1   
     7     4    24 ar  
     8     5     6 1   
     9     5    23 1   
    10     6     7 1   
    11     6    30 1   
    12     6    31 1   
    13     7     8 1   
    14     7    32 1   
    15     7    33 1   
    16     8     9 1   
    17     8    22 1   
    18     8    34 1   
    19     9    10 2   
    20     9    11 1   
    21    11    12 1   
    22    11    35 1   
    23    12    13 ar  
    24    12    21 ar  
    25    13    14 ar  
    26    13    36 1   
    27    14    15 1   
    28    14    19 ar  
    29    15    16 1   
    30    15    17 1   
    31    15    18 1   
    32    19    20 ar  
    33    19    37 1   
    34    20    21 ar  
    35    20    38 1   
    36    21    39 1   
    37    22    23 1   
    38    22    40 1   
    39    22    41 1   
    40    23    42 1   
    41    23    43 1   
    42    24    25 1   
    43    24    28 ar  
    44    25    26 2   
    45    26    27 1   
    46    26    44 1   
    47    27    28 1   
    48    27    45 1   
@<TRIPOS>SUBSTRUCTURE
     1 FS9         1 TEMP              0 ****  ****    0 ROOT
