@<TRIPOS>MOLECULE
molecule
   29    29     1     0     0
SMALL
bcc


@<TRIPOS>ATOM
      1 OAB          0.0000     0.0000     0.0000 o          1 FSA      -0.829300
      2 CAL          1.3430     0.0000     0.0000 c          1 FSA       0.905600
      3 OAA          1.9470     0.0000     1.0460 o          1 FSA      -0.829300
      4 CAH          2.0960     0.0020    -1.3050 c3         1 FSA      -0.072300
      5 SAK          3.8790     0.0020    -0.9730 ss         1 FSA      -0.316200
      6 CAI          4.6040     0.0030    -2.6370 c3         1 FSA      -0.038300
      7 CAP          6.1300     0.0030    -2.5280 c3         1 FSA       0.361600
      8 OAF          6.5570     1.1700    -1.8220 oh         1 FSA      -0.629800
      9 CAO          6.7410     0.0040    -3.9320 c3         1 FSA       0.143100
     10 OAE          6.3610     1.1990    -4.6180 oh         1 FSA      -0.591800
     11 CAN          8.2680    -0.0570    -3.8150 c3         1 FSA       0.126100
     12 OAD          8.8440    -0.1300    -5.1210 oh         1 FSA      -0.603800
     13 CAM          8.6590    -1.3000    -3.0110 c3         1 FSA       0.094100
     14 OAC          8.2400    -2.4730    -3.7130 oh         1 FSA      -0.582800
     15 CAG          7.9730    -1.2510    -1.6440 c3         1 FSA       0.124400
     16 OAJ          6.5570    -1.1640    -1.8240 os         1 FSA      -0.395600
     17 HAH          1.8350    -0.8820    -1.8740 h1         1 FSA       0.046700
     18 HAHA         1.8340     0.8870    -1.8720 h1         1 FSA       0.046700
     19 HAI          4.2800     0.8880    -3.1710 h1         1 FSA       0.067200
     20 HAIA         4.2800    -0.8810    -3.1720 h1         1 FSA       0.067200
     21 HOAF         6.0030     1.3030    -1.0710 ho         1 FSA       0.439000
     22 HAO          6.3870    -0.8610    -4.4800 h1         1 FSA       0.074700
     23 HOAE         6.0850     0.9850    -5.4930 ho         1 FSA       0.400000
     24 HAN          8.6260     0.8300    -3.3060 h1         1 FSA       0.064700
     25 HOAD         9.5430     0.4980    -5.1910 ho         1 FSA       0.395000
     26 HAM          9.7330    -1.3180    -2.8750 h1         1 FSA       0.027700
     27 HOAC         8.9300    -3.1150    -3.6910 ho         1 FSA       0.393000
     28 HAG          8.2110    -2.1520    -1.0900 h1         1 FSA       0.056200
     29 HAGA         8.3210    -0.3830    -1.0970 h1         1 FSA       0.056200
@<TRIPOS>BOND
     1     2     1 1
     2     3     2 1
     3     2     4 1
     4     4     5 1
     5     4    17 1
     6     4    18 1
     7     5     6 1
     8     6     7 1
     9     6    19 1
    10     6    20 1
    11     9     7 1
    12     7     8 1
    13     7    16 1
    14     8    21 1
    15    10     9 1
    16     9    11 1
    17     9    22 1
    18    10    23 1
    19    12    11 1
    20    11    13 1
    21    11    24 1
    22    12    25 1
    23    14    13 1
    24    13    15 1
    25    13    26 1
    26    14    27 1
    27    16    15 1
    28    15    28 1
    29    15    29 1
@<TRIPOS>SUBSTRUCTURE
     1 FSA         1 TEMP              0 ****  ****    0 ROOT
