@<TRIPOS>MOLECULE
FSA
   29    29     1     0     0
SMALL
bcc


@<TRIPOS>ATOM
      1 OAB         2.0190    2.0910   -0.6800 o         1 FSA     -0.839300
      2 CAL         2.7170    1.2660   -1.3240 c         1 FSA      0.921600
      3 OAA         3.7490    1.5820   -1.9930 o         1 FSA     -0.839300
      4 CAH         2.2560   -0.1980   -1.3190 c3        1 FSA     -0.127300
      5 SAK         3.4940   -1.4610   -1.2830 ss        1 FSA     -0.330200
      6 CAI         4.5140   -1.1230   -2.6870 c3        1 FSA     -0.025300
      7 CAP         5.9300   -0.6270   -2.3960 c3        1 FSA      0.336600
      8 OAF         6.0720    0.2900   -1.3490 oh        1 FSA     -0.635800
      9 CAO         6.5430    0.0000   -3.6840 c3        1 FSA      0.098100
     10 OAE         5.8220    1.1290   -4.1110 oh        1 FSA     -0.600800
     11 CAN         8.0210    0.3530   -3.4350 c3        1 FSA      0.089100
     12 OAD         8.6530    0.8390   -4.6020 oh        1 FSA     -0.585800
     13 CAM         8.7760   -0.8800   -2.9040 c3        1 FSA      0.073100
     14 OAC         8.9010   -1.8590   -3.9260 oh        1 FSA     -0.613800
     15 CAG         8.0590   -1.4430   -1.6780 c3        1 FSA      0.108400
     16 OAJ         6.7100   -1.7580   -1.9920 os        1 FSA     -0.438600
     17 HAH         1.6010   -0.3420   -2.2100 h1        1 FSA      0.061700
     18 HAHA        1.6580   -0.3850   -0.3940 h1        1 FSA      0.061700
     19 HAI         4.0190   -0.3310   -3.3120 h1        1 FSA      0.093200
     20 HAIA        4.5940   -2.0730   -3.2680 h1        1 FSA      0.093200
     21 HOAF        5.1830    0.5430   -1.0300 ho        1 FSA      0.478000
     22 HAO         6.4700   -0.7400   -4.5290 h1        1 FSA      0.048700
     23 HOAE        5.4560    1.5740   -3.3240 ho        1 FSA      0.462000
     24 HAN         8.0830    1.1970   -2.6950 h1        1 FSA      0.102700
     25 HOAD        8.6010    0.1340   -5.2600 ho        1 FSA      0.398000
     26 HAM         9.8370   -0.6000   -2.6570 h1        1 FSA      0.076700
     27 HOAC        8.0370   -2.2840   -4.0100 ho        1 FSA      0.408000
     28 HAG         8.1040   -0.7090   -0.8330 h1        1 FSA      0.062700
     29 HAGA        8.5030   -2.4260   -1.3710 h1        1 FSA      0.062700
@<TRIPOS>BOND
     1    1    2 1   
     2    2    3 1   
     3    2    4 1   
     4    4    5 1   
     5    4   17 1   
     6    4   18 1   
     7    5    6 1   
     8    6    7 1   
     9    6   19 1   
    10    6   20 1   
    11    7    8 1   
    12    7    9 1   
    13    7   16 1   
    14    8   21 1   
    15    9   10 1   
    16    9   11 1   
    17    9   22 1   
    18   10   23 1   
    19   11   12 1   
    20   11   13 1   
    21   11   24 1   
    22   12   25 1   
    23   13   14 1   
    24   13   15 1   
    25   13   26 1   
    26   14   27 1   
    27   15   16 1   
    28   15   28 1   
    29   15   29 1   
@<TRIPOS>SUBSTRUCTURE
     1 FSA         1 TEMP              0 ****  ****    0 ROOT
