@<TRIPOS>MOLECULE
FSB
   35    36     1     0     0
SMALL
bcc


@<TRIPOS>ATOM
      1 C01          0.0000     0.0000     0.0000 ca         1 FSB      -0.075000
      2 C02          1.3800     0.0000     0.0000 ca         1 FSB       0.005500
      3 C03          2.0750     0.0000     1.1960 ca         1 FSB      -0.220500
      4 C04          1.3920     0.0010     2.4000 ca         1 FSB       0.005500
      5 C05          0.0130    -0.0000     2.4150 ca         1 FSB      -0.075000
      6 C06         -0.6950     0.0010     1.2110 ca         1 FSB      -0.036600
      7 C07         -2.1730     0.0010     1.2190 c          1 FSB       0.560700
      8 O08         -2.7860     0.0020     0.1700 o          1 FSB      -0.613100
      9 N09         -2.8410     0.0010     2.3900 ns         1 FSB      -0.167900
     10 C10         -4.3060     0.0020     2.3980 c3         1 FSB       0.117300
     11 S11          3.8370    -0.0000     1.1870 sy         1 FSB       0.934200
     12 NP2          4.3280     1.5810     1.1840 nz         1 FSB      -0.132500
     13 O13          4.2450    -0.5450     2.4340 o          1 FSB      -0.493800
     14 O14          4.2310    -0.5460    -0.0650 o          1 FSB      -0.493800
     15 C15         -4.8000     0.0020     3.8210 ca         1 FSB      -0.174300
     16 C16         -5.3190     1.1570     4.3720 ca         1 FSB      -0.056000
     17 C17         -5.7720     1.1580     5.6790 ca         1 FSB      -0.108000
     18 C18         -5.7070     0.0020     6.4350 ca         1 FSB      -0.054000
     19 C19         -5.1890    -1.1560     5.8840 ca         1 FSB      -0.127000
     20 C20         -4.7390    -1.1590     4.5750 ca         1 FSB       0.115900
     21 F21         -4.2380    -2.2900     4.0350 f          1 FSB      -0.124900
     22 H01C        -0.5430     0.0000    -0.9370 ha         1 FSB       0.143500
     23 H02C         1.9210    -0.0010    -0.9390 ha         1 FSB       0.127500
     24 H04C         1.9420     0.0000     3.3330 ha         1 FSB       0.127500
     25 H05C        -0.5200     0.0000     3.3580 ha         1 FSB       0.143500
     26 H09N        -2.3360     0.0310     3.2540 hn         1 FSB       0.177500
     27 H101        -4.6690     0.8870     1.8890 h1         1 FSB       0.042200
     28 H102        -4.6700    -0.8820     1.8890 h1         1 FSB       0.042200
     29 HNP1         3.9710     2.0390     0.3690 hn         1 FSB       0.313800
     30 HNP2         5.3280     1.6190     1.1780 hn         1 FSB       0.313800
     31 H16C        -5.3700     2.0630     3.7810 ha         1 FSB       0.113000
     32 H17C        -6.1780     2.0650     6.1100 ha         1 FSB       0.115000
     33 H18C        -6.0610     0.0040     7.4580 ha         1 FSB       0.115000
     34 H19C        -5.1400    -2.0620     6.4760 ha         1 FSB       0.127000
     35 HP23         3.9880     2.0370     2.0080 hn         1 FSB       0.313800
@<TRIPOS>BOND
     1     1     2 ar  
     2     1     6 ar  
     3     1    22 1   
     4     2     3 ar  
     5     2    23 1   
     6     3     4 ar  
     7     3    11 1   
     8     4     5 ar  
     9     4    24 1   
    10     5     6 ar  
    11     5    25 1   
    12     6     7 1   
    13     7     8 2   
    14     7     9 1   
    15     9    10 1   
    16     9    26 1   
    17    10    15 1   
    18    10    27 1   
    19    10    28 1   
    20    11    12 1   
    21    11    13 2   
    22    11    14 2   
    23    12    29 1   
    24    12    30 1   
    25    12    35 1   
    26    15    16 ar  
    27    15    20 ar  
    28    16    17 ar  
    29    16    31 1   
    30    17    18 ar  
    31    17    32 1   
    32    18    19 ar  
    33    18    33 1   
    34    19    20 ar  
    35    19    34 1   
    36    20    21 1   
@<TRIPOS>SUBSTRUCTURE
     1 FSB         1 TEMP              0 ****  ****    0 ROOT
