@<TRIPOS>MOLECULE
FSE
   31    33     1     0     0
SMALL
bcc


@<TRIPOS>ATOM
      1 C6         -0.0710    0.1700    0.1050 ca        1 FSE     -0.250000
      2 C5          1.3030    0.0240    0.0320 ca        1 FSE     -0.001000
      3 C10         2.0860    0.0020    1.1990 ca        1 FSE     -0.255600
      4 C9          1.4490    0.1320    2.4460 ca        1 FSE      0.189100
      5 C8          0.0570    0.2810    2.5510 ca        1 FSE     -0.199000
      6 C7         -0.6890    0.2980    1.3680 ca        1 FSE      0.185100
      7 C4          3.5330   -0.1500    1.1400 c         1 FSE      0.578900
      8 C3          4.1940   -0.1610    2.4570 cc        1 FSE     -0.073100
      9 C2          3.5090   -0.0230    3.6280 cd        1 FSE      0.149900
     10 C1'         4.0510    0.0020    4.9840 ca        1 FSE     -0.061800
     11 C6'         3.3700    0.6890    6.0010 ca        1 FSE     -0.088000
     12 C5'         3.8760    0.7320    7.2950 ca        1 FSE     -0.146000
     13 C4'         5.0800    0.0800    7.5920 ca        1 FSE      0.132100
     14 C3'         5.7640   -0.6160    6.5710 ca        1 FSE      0.029100
     15 C2'         5.2530   -0.6600    5.2740 ca        1 FSE     -0.125000
     16 O1          2.1230    0.1210    3.6500 os        1 FSE     -0.211200
     17 O4          4.1940   -0.2580    0.0940 o         1 FSE     -0.562100
     18 O3'         6.9380   -1.2410    6.9440 oh        1 FSE     -0.518100
     19 O4'         5.5400    0.1500    8.8830 oh        1 FSE     -0.490100
     20 O3          5.5640   -0.3180    2.4880 oh        1 FSE     -0.495100
     21 O7         -2.0450    0.4460    1.5070 oh        1 FSE     -0.486100
     22 H6         -0.6820    0.1870   -0.8080 ha        1 FSE      0.145000
     23 H5          1.8110   -0.0780   -0.9430 ha        1 FSE      0.163000
     24 H8         -0.4300    0.3790    3.5310 ha        1 FSE      0.175000
     25 H6'         2.4220    1.2010    5.7700 ha        1 FSE      0.150000
     26 H5'         3.3470    1.2720    8.0940 ha        1 FSE      0.157000
     27 H2'         5.7950   -1.2070    4.4860 ha        1 FSE      0.162000
     28 H3'         7.3420   -1.6100    6.1460 ho        1 FSE      0.433000
     29 H4'         6.3800   -0.3330    8.9300 ho        1 FSE      0.440000
     30 HO3         5.8750   -0.2760    1.5660 ho        1 FSE      0.444000
     31 HO7        -2.4430    0.4400    0.6230 ho        1 FSE      0.428000
@<TRIPOS>BOND
     1    1    2 ar  
     2    1    6 ar  
     3    1   22 1   
     4    2    3 ar  
     5    2   23 1   
     6    3    4 ar  
     7    3    7 1   
     8    4    5 ar  
     9    4   16 1   
    10    5    6 ar  
    11    5   24 1   
    12    6   21 1   
    13    7    8 1   
    14    7   17 2   
    15    8    9 2   
    16    8   20 1   
    17    9   10 1   
    18    9   16 1   
    19   10   11 ar  
    20   10   15 ar  
    21   11   12 ar  
    22   11   25 1   
    23   12   13 ar  
    24   12   26 1   
    25   13   14 ar  
    26   13   19 1   
    27   14   15 ar  
    28   14   18 1   
    29   15   27 1   
    30   18   28 1   
    31   19   29 1   
    32   20   30 1   
    33   21   31 1   
@<TRIPOS>SUBSTRUCTURE
     1 FSE         1 TEMP              0 ****  ****    0 ROOT
