@<TRIPOS>MOLECULE
molecule
   31    33     1     0     0
SMALL
bcc


@<TRIPOS>ATOM
      1 C6           0.0000     0.0000     0.0000 ca         1 FSE      -0.190000
      2 C5           1.3660     0.0000     0.0000 ca         1 FSE      -0.025000
      3 C10          2.0600     0.0000     1.2120 ca         1 FSE      -0.240600
      4 C9           1.3570     0.0010     2.4290 ca         1 FSE       0.171100
      5 C8          -0.0310     0.0010     2.4120 ca         1 FSE      -0.188000
      6 C7          -0.7040     0.0010     1.2020 ca         1 FSE       0.165100
      7 C4           3.5320     0.0000     1.2500 c          1 FSE       0.562900
      8 C3           4.1520    -0.0000     2.5250 cc         1 FSE      -0.092100
      9 C2           3.3760     0.0000     3.6470 cd         1 FSE       0.169900
     10 C1'          4.0370     0.0000     4.9660 ca         1 FSE      -0.061800
     11 C6'          3.6190     0.8910     5.9580 ca         1 FSE      -0.089000
     12 C5'          4.2380     0.8890     7.1900 ca         1 FSE      -0.165000
     13 C4'          5.2750     0.0040     7.4480 ca         1 FSE       0.111100
     14 C3'          5.6970    -0.8870     6.4630 ca         1 FSE       0.083100
     15 C2'          5.0770    -0.8960     5.2290 ca         1 FSE      -0.098000
     16 O1           2.0340     0.0010     3.5960 os         1 FSE      -0.198200
     17 O4           4.1940    -0.0010     0.2240 o          1 FSE      -0.543100
     18 O3'          6.7130    -1.7530     6.7200 oh         1 FSE      -0.505100
     19 O4'          5.8820     0.0070     8.6640 oh         1 FSE      -0.510100
     20 O3           5.5080    -0.0020     2.6290 oh         1 FSE      -0.481100
     21 O7          -2.0610     0.0020     1.1870 oh         1 FSE      -0.517100
     22 H6          -0.5390    -0.0000    -0.9400 ha         1 FSE       0.151000
     23 H5           1.9100    -0.0010    -0.9370 ha         1 FSE       0.163000
     24 H8          -0.5860     0.0020     3.3420 ha         1 FSE       0.160000
     25 H6'          2.8100     1.5830     5.7590 ha         1 FSE       0.145000
     26 H5'          3.9140     1.5810     7.9590 ha         1 FSE       0.147000
     27 H2'          5.4040    -1.5880     4.4620 ha         1 FSE       0.165000
     28 H3'          6.3620    -2.6170     6.8600 ho         1 FSE       0.424000
     29 H4'          6.4310     0.7700     8.7390 ho         1 FSE       0.427000
     30 HO3          5.8640     0.7010     2.1120 ho         1 FSE       0.430000
     31 HO7         -2.3760    -0.8870     1.1930 ho         1 FSE       0.429000
@<TRIPOS>BOND
     1     1     2 ar
     2     1     6 ar
     3     1    22 1
     4     2     3 ar
     5     2    23 1
     6     3     4 ar
     7     3     7 1
     8     4     5 ar
     9     4    16 1
    10     5     6 ar
    11     5    24 1
    12     6    21 1
    13     7     8 1
    14     7    17 2
    15     8     9 2
    16     8    20 1
    17     9    10 1
    18     9    16 1
    19    10    11 ar
    20    10    15 ar
    21    11    12 ar
    22    11    25 1
    23    12    13 ar
    24    12    26 1
    25    13    14 ar
    26    13    19 1
    27    14    15 ar
    28    14    18 1
    29    15    27 1
    30    18    28 1
    31    19    29 1
    32    20    30 1
    33    21    31 1
@<TRIPOS>SUBSTRUCTURE
     1 FSE         1 TEMP              0 ****  ****    0 ROOT
