@<TRIPOS>MOLECULE
molecule
   13    12     1     0     0
SMALL
bcc


@<TRIPOS>ATOM
      1 O1P          0.0000     0.0000     0.0000 o          1 FSG      -0.878500
      2 P            1.4800     0.0000     0.0000 p5         1 FSG       0.986700
      3 O3P          2.0170    -1.3140    -0.7590 o          1 FSG      -0.878500
      4 O2P          2.0170     1.3150    -0.7590 o          1 FSG      -0.878500
      5 C1           2.0870     0.0000     1.7180 c3         1 FSG       0.006400
      6 F            1.6210    -1.1430     2.3780 f          1 FSG      -0.250300
      7 C2           1.5840     1.2300     2.4290 c          1 FSG       0.670100
      8 O2           0.3960     1.4680     2.4610 o          1 FSG      -0.548100
      9 N3           2.4560     2.0650     3.0290 ns         1 FSG      -0.492400
     10 O3           1.9840     3.2210     3.6960 oh         1 FSG      -0.404100
     11 H1           3.1700     0.0000     1.7180 h1         1 FSG       0.017700
     12 HN3          3.4340     1.8520     3.0280 hn         1 FSG       0.294500
     13 HO3          2.7170     3.7370     3.9880 ho         1 FSG       0.356000
@<TRIPOS>BOND
     1     1     2 1
     2     2     3 1
     3     2     4 1
     4     2     5 1
     5     5     6 1
     6     5     7 1
     7     5    11 1
     8     7     8 2
     9     7     9 1
    10     9    10 1
    11     9    12 1
    12    10    13 1
@<TRIPOS>SUBSTRUCTURE
     1 FSG         1 TEMP              0 ****  ****    0 ROOT
