@<TRIPOS>MOLECULE
FSK
   29    29     1     0     0
SMALL
bcc


@<TRIPOS>ATOM
      1 N1           0.0000     0.0000     0.0000 n          1 FSK       0.055000
      2 C6          -0.7280    -0.0000    -1.2720 c3         1 FSK       0.052300
      3 O1           1.9440    -0.0010    -1.0580 o          1 FSK      -0.709500
      4 O2           2.0360     0.0010     3.3780 o          1 FSK      -0.656500
      5 N2           2.0390     0.0000     1.1530 ns         1 FSK      -0.125500
      6 C1           1.3450     0.0000     0.0000 c          1 FSK       0.584500
      7 C2           1.4000     0.0010     2.3390 c          1 FSK       0.616700
      8 C3          -0.0090     0.0130     2.3710 cc         1 FSK      -0.260400
      9 C4          -0.7450     0.0270     3.6860 c3         1 FSK       0.069100
     10 C5          -0.6980     0.0070     1.1890 cd         1 FSK      -0.054400
     11 C11         -2.1680     0.0090     1.1880 cf         1 FSK      -0.076000
     12 C12         -2.8350    -1.0680     1.5970 c2         1 FSK      -0.171400
     13 C14         -2.0930    -2.3430     1.9040 c3         1 FSK       0.261100
     14 C13         -4.3330    -1.0120     1.7550 c3         1 FSK       0.283600
     15 F           -2.0830    -2.5570     3.2870 f          1 FSK      -0.224300
     16 O3          -4.7990     0.2930     1.4080 oh         1 FSK      -0.597800
     17 H1          -1.3880     0.8590    -1.3100 h1         1 FSK       0.030033
     18 H2          -1.3130    -0.9080    -1.3530 h1         1 FSK       0.030033
     19 H3          -0.0230     0.0490    -2.0920 h1         1 FSK       0.030033
     20 H4           3.0400    -0.0000     1.1290 hn         1 FSK       0.206500
     21 H5          -0.7310    -0.9660     4.1180 hc         1 FSK       0.022700
     22 H6          -0.2610     0.7220     4.3620 hc         1 FSK       0.022700
     23 H7          -1.7700     0.3360     3.5230 hc         1 FSK       0.022700
     24 H8          -2.7040     0.9240     0.9680 ha         1 FSK       0.147000
     25 H9          -2.5850    -3.1740     1.4140 h1         1 FSK       0.019200
     26 H10         -1.0740    -2.2640     1.5440 h1         1 FSK       0.019200
     27 H11         -4.7920    -1.7450     1.1040 h1         1 FSK       0.001700
     28 H12         -4.5960    -1.2280     2.7840 h1         1 FSK       0.001700
     29 H13         -5.7390     0.2800     1.3270 ho         1 FSK       0.400000
@<TRIPOS>BOND
     1     1     2 1   
     2     1     6 1   
     3     1    10 1   
     4     2    17 1   
     5     2    18 1   
     6     2    19 1   
     7     3     6 2   
     8     4     7 2   
     9     5     6 1   
    10     5     7 1   
    11     5    20 1   
    12     7     8 1   
    13     8     9 1   
    14     8    10 2   
    15     9    21 1   
    16     9    22 1   
    17     9    23 1   
    18    10    11 1   
    19    11    12 2   
    20    11    24 1   
    21    12    13 1   
    22    12    14 1   
    23    13    15 1   
    24    13    25 1   
    25    13    26 1   
    26    14    16 1   
    27    14    27 1   
    28    14    28 1   
    29    16    29 1   
@<TRIPOS>SUBSTRUCTURE
     1 FSK         1 TEMP              0 ****  ****    0 ROOT
