@<TRIPOS>MOLECULE
molecule
   29    29     1     0     0
SMALL
bcc


@<TRIPOS>ATOM
      1 N1           0.0000     0.0000     0.0000 n          1 FSK      -0.399000
      2 C6          -0.7280    -0.0000    -1.2720 c3         1 FSK       0.069300
      3 O1           1.9440    -0.0010    -1.0580 o          1 FSK      -0.656500
      4 O2           2.0360     0.0010     3.3780 o          1 FSK      -0.613500
      5 N2           2.0390     0.0000     1.1530 ns         1 FSK      -0.559500
      6 C1           1.3450     0.0000     0.0000 c          1 FSK       0.812500
      7 C2           1.4000     0.0010     2.3390 c          1 FSK       0.700700
      8 C3          -0.0090     0.0130     2.3710 cc         1 FSK      -0.235400
      9 C4          -0.7450     0.0270     3.6860 c3         1 FSK      -0.027900
     10 C5          -0.6980     0.0070     1.1890 cd         1 FSK       0.016600
     11 C11         -2.1680     0.0090     1.1880 cf         1 FSK      -0.321000
     12 C12         -2.8350    -1.0680     1.5970 c2         1 FSK       0.005600
     13 C14         -2.0930    -2.3430     1.9040 c3         1 FSK       0.146100
     14 C13         -4.3330    -1.0120     1.7550 c3         1 FSK       0.176600
     15 F           -2.0830    -2.5570     3.2870 f          1 FSK      -0.230300
     16 O3          -4.7990     0.2930     1.4080 oh         1 FSK      -0.571800
     17 H1          -1.1470    -0.9830    -1.4480 h1         1 FSK       0.071033
     18 H2          -0.0490     0.2520    -2.0770 h1         1 FSK       0.071033
     19 H3          -1.5270     0.7310    -1.2310 h1         1 FSK       0.071033
     20 H4           3.0400    -0.0000     1.1290 hn         1 FSK       0.364500
     21 H5          -0.2920     0.7580     4.3450 hc         1 FSK       0.058367
     22 H6          -1.7820     0.2880     3.5160 hc         1 FSK       0.058367
     23 H7          -0.6890    -0.9540     4.1420 hc         1 FSK       0.058367
     24 H8          -1.6090    -0.4130     0.3620 ha         1 FSK       0.312000
     25 H9          -2.5850    -3.1740     1.4140 h1         1 FSK       0.061700
     26 H10         -1.0740    -2.2640     1.5440 h1         1 FSK       0.061700
     27 H11         -4.7930    -1.7450     1.1040 h1         1 FSK       0.047200
     28 H12         -4.5960    -1.2280     2.7840 h1         1 FSK       0.047200
     29 H13         -5.7390     0.3220     1.4840 ho         1 FSK       0.403000
@<TRIPOS>BOND
     1     9     8 1
     2     4     7 2
     3    13    12 1
     4    13    15 1
     5    14    16 1
     6    14    12 1
     7     8     7 1
     8     8    10 2
     9    12    11 2
    10     7     5 1
    11    11    10 1
    12    10     1 1
    13     5     6 1
    14     1     6 1
    15     1     2 1
    16     6     3 2
    17     2    17 1
    18     2    18 1
    19     2    19 1
    20     5    20 1
    21     9    21 1
    22     9    22 1
    23     9    23 1
    24    11    24 1
    25    13    25 1
    26    13    26 1
    27    14    27 1
    28    14    28 1
    29    16    29 1
@<TRIPOS>SUBSTRUCTURE
     1 FSK         1 TEMP              0 ****  ****    0 ROOT
