@<TRIPOS>MOLECULE
FSL
   22    22     1     0     0
SMALL
bcc


@<TRIPOS>ATOM
      1 CAJ        -0.0790   -1.2140    0.7610 c         1 FSL      0.898600
      2 OAN         0.7630   -1.9720    1.3350 o         1 FSL     -0.883300
      3 CAK        -0.2580    0.2450    1.1860 c3        1 FSL     -0.150400
      4 CAL         0.3660    0.6310    2.5180 c3        1 FSL     -0.135400
      5 CAM         0.6600    2.1480    2.5710 c         1 FSL      0.908600
      6 OAP         1.8460    2.5140    2.8320 o         1 FSL     -0.871800
      7 OAO        -0.2650    2.9920    2.3570 o         1 FSL     -0.871800
      8 CAQ        -0.4710    0.1790    3.6720 ca        1 FSL      0.007700
      9 CAR        -0.4250   -1.1710    4.0620 ca        1 FSL     -0.133000
     10 CAS        -1.1630   -1.6190    5.1540 ca        1 FSL     -0.164000
     11 CAT        -1.9650   -0.7340    5.8760 ca        1 FSL     -0.188000
     12 CAU        -2.0300    0.6030    5.4860 ca        1 FSL     -0.164000
     13 CAV        -1.2940    1.0570    4.3920 ca        1 FSL     -0.133000
     14 OAM        -0.7890   -1.6340   -0.2080 o         1 FSL     -0.883300
     15 HAK1        0.2100    0.8780    0.3870 hc        1 FSL      0.032200
     16 HAK2       -1.3510    0.4840    1.1960 hc        1 FSL      0.032200
     17 HA          1.3590    0.0970    2.5900 hc        1 FSL      0.074700
     18 HAR         0.1860   -1.8660    3.4530 ha        1 FSL      0.182000
     19 HB         -1.3470    2.1140    4.0720 ha        1 FSL      0.182000
     20 HC         -1.1190   -2.6780    5.4450 ha        1 FSL      0.090000
     21 HAT        -2.5430   -1.0880    6.7380 ha        1 FSL      0.080000
     22 HAU        -2.6670    1.3040    6.0420 ha        1 FSL      0.090000
@<TRIPOS>BOND
     1    1    2 1   
     2    1    3 1   
     3    1   14 1   
     4    3    4 1   
     5    3   15 1   
     6    3   16 1   
     7    4    5 1   
     8    4    8 1   
     9    4   17 1   
    10    5    6 1   
    11    5    7 1   
    12    8    9 ar  
    13    8   13 ar  
    14    9   10 ar  
    15    9   18 1   
    16   10   11 ar  
    17   10   20 1   
    18   11   12 ar  
    19   11   21 1   
    20   12   13 ar  
    21   12   22 1   
    22   13   19 1   
@<TRIPOS>SUBSTRUCTURE
     1 FSL         1 TEMP              0 ****  ****    0 ROOT
