@<TRIPOS>MOLECULE
molecule
   22    22     1     0     0
SMALL
bcc


@<TRIPOS>ATOM
      1 CAJ          0.0000     0.0000     0.0000 c          1 FSL       0.912600
      2 OAN          1.2090     0.0000     0.0000 o          1 FSL      -0.871800
      3 CAK         -0.7540     0.0000     1.3050 c3         1 FSL      -0.152400
      4 CAL          0.2400    -0.0010     2.4680 c3         1 FSL      -0.129400
      5 CAM          1.0230     1.2860     2.4610 c          1 FSL       0.920600
      6 OAP          1.9590     1.5080     3.3970 o          1 FSL      -0.855800
      7 OAO          0.8080     2.1190     1.6120 o          1 FSL      -0.855800
      8 CAQ         -0.5090    -0.1250     3.7700 ca         1 FSL       0.024700
      9 CAR         -0.2670    -1.1980     4.6070 ca         1 FSL      -0.126500
     10 CAS         -0.9550    -1.3120     5.8010 ca         1 FSL      -0.150000
     11 CAT         -1.8850    -0.3540     6.1570 ca         1 FSL      -0.190000
     12 CAU         -2.1260     0.7200     5.3200 ca         1 FSL      -0.150000
     13 CAV         -1.4360     0.8360     4.1290 ca         1 FSL      -0.126500
     14 OAM         -0.6710     0.0060    -1.1630 o          1 FSL      -0.871800
     15 HAK1        -1.3760     0.8850     1.3630 hc         1 FSL       0.014700
     16 HAK2        -1.3770    -0.8840     1.3620 hc         1 FSL       0.014700
     17 HA           0.9200    -0.8380     2.3620 hc         1 FSL       0.059700
     18 HAR          0.4620    -1.9490     4.3280 ha         1 FSL       0.135500
     19 HB          -1.6260     1.6770     3.4730 ha         1 FSL       0.135500
     20 HC          -0.7650    -2.1530     6.4570 ha         1 FSL       0.090000
     21 HAT         -2.4250    -0.4440     7.0920 ha         1 FSL       0.084000
     22 HAU         -2.8540     1.4720     5.6000 ha         1 FSL       0.090000
@<TRIPOS>BOND
     1     1     2 1
     2     1     3 1
     3     1    14 1
     4     3     4 1
     5     4     5 1
     6     4     8 1
     7     5     6 1
     8     5     7 1
     9     8     9 ar
    10     8    13 ar
    11     9    10 ar
    12    10    11 ar
    13    11    12 ar
    14    12    13 ar
    15     3    15 1
    16     3    16 1
    17     4    17 1
    18     9    18 1
    19    13    19 1
    20    10    20 1
    21    11    21 1
    22    12    22 1
@<TRIPOS>SUBSTRUCTURE
     1 FSL         1 TEMP              0 ****  ****    0 ROOT
