@<TRIPOS>MOLECULE
molecule
   57    58     1     0     0
SMALL
bcc


@<TRIPOS>ATOM
      1 C2A          0.0000     0.0000     0.0000 c3         1 FSM       0.102700
      2 C3A          1.5330     0.0000     0.0000 c3         1 FSM       0.125100
      3 C4A          2.0680     0.0000     1.4370 c3         1 FSM       0.108100
      4 C5A          1.4400    -1.1500     2.2340 c3         1 FSM       0.137100
      5 C6A          1.8490    -1.1470     3.7030 c3         1 FSM       0.151400
      6 C8A         -2.0650     0.3090    -3.1620 c3         1 FSM      -0.182100
      7 N2A         -0.5270    -0.0770    -1.3430 ns         1 FSM      -0.575900
      8 O1A         -1.8360    -3.4270    -1.7460 oh         1 FSM      -0.580800
      9 O3A          2.0110     1.1530    -0.6900 oh         1 FSM      -0.590800
     10 O4A          1.7390     1.2520     2.0450 oh         1 FSM      -0.582800
     11 O5A          0.0070    -1.0680     2.1930 os         1 FSM      -0.401600
     12 C1          -0.5370    -1.1440     0.8720 c3         1 FSM       0.301900
     13 O6A          1.2130    -2.2340     4.3510 oh         1 FSM      -0.607800
     14 O7A         -2.4660     1.1660    -1.0090 o          1 FSM      -0.597100
     15 C1B         -1.7100    -5.8390     0.7670 c3         1 FSM       0.345900
     16 C2B         -0.6240    -4.7610     0.6270 c3         1 FSM       0.089700
     17 C3B         -1.2540    -3.3630     0.5860 c3         1 FSM       0.142100
     18 C4B         -2.3920    -3.2970    -0.4360 c3         1 FSM       0.102100
     19 C5B         -3.3910    -4.4290    -0.1740 c3         1 FSM       0.124100
     20 C6B         -4.5220    -4.4690    -1.1940 c3         1 FSM       0.143400
     21 C8B          2.4540    -5.1700     2.7950 c3         1 FSM      -0.180100
     22 N2B          0.3200    -4.8590     1.7170 ns         1 FSM      -0.576900
     23 O1B         -1.1300    -7.1390     0.6680 oh         1 FSM      -0.566800
     24 O3B         -0.2600    -2.4040     0.2620 os         1 FSM      -0.405600
     25 O5B         -2.7170    -5.6900    -0.2360 os         1 FSM      -0.437600
     26 O6B         -5.2300    -3.2440    -1.1320 oh         1 FSM      -0.614800
     27 O7B          2.2310    -5.2850     0.4560 o          1 FSM      -0.592100
     28 HAA         -0.3310     0.9340     0.4390 h1         1 FSM       0.115700
     29 HAB          1.8850    -0.8910    -0.5060 h1         1 FSM       0.051700
     30 HAD          3.1440    -0.1240     1.4180 h1         1 FSM       0.040700
     31 HAF          1.7450    -2.0870     1.7860 h1         1 FSM       0.067700
     32 HAA1         2.9240    -1.2550     3.7820 h1         1 FSM       0.036700
     33 HAA2         1.5410    -0.2170     4.1650 h1         1 FSM       0.036700
     34 HA'1        -1.5710    -0.5830    -3.5300 hc         1 FSM       0.061367
     35 HA'2        -1.7390     1.1650    -3.7400 hc         1 FSM       0.061367
     36 HA'3        -3.1370     0.1940    -3.2600 hc         1 FSM       0.061367
     37 HA'         -0.0040    -0.5830    -2.0310 hn         1 FSM       0.323500
     38 HAC          2.7320     0.9100    -1.2470 ho         1 FSM       0.401000
     39 HAE          2.5210     1.7720     2.1360 ho         1 FSM       0.405000
     40 H1          -1.6110    -1.0310     0.9470 h2         1 FSM       0.085700
     41 HAG          1.1690    -2.0660     5.2770 ho         1 FSM       0.406000
     42 HBE         -2.1750    -5.7340     1.7400 h2         1 FSM       0.009700
     43 HBB         -0.0980    -4.9250    -0.3060 h1         1 FSM       0.129700
     44 HB'         -1.6560    -3.1370     1.5660 h1         1 FSM       0.051700
     45 HBA         -2.8990    -2.3440    -0.3470 h1         1 FSM       0.062700
     46 HBC         -3.8090    -4.3040     0.8170 h1         1 FSM       0.045700
     47 HB'1        -4.1130    -4.6030    -2.1880 h1         1 FSM       0.042200
     48 HB'2        -5.1920    -5.2880    -0.9630 h1         1 FSM       0.042200
     49 HBA1         2.8600    -6.1660     2.9230 hc         1 FSM       0.060033
     50 HBA2         1.8210    -4.9260     3.6400 hc         1 FSM       0.060033
     51 HBA3         3.2650    -4.4550     2.7330 hc         1 FSM       0.060033
     52 HBG         -0.0170    -4.7400     2.6520 hn         1 FSM       0.317500
     53 HBF         -1.7520    -7.7840     0.9610 ho         1 FSM       0.411000
     54 HBD         -6.1140    -3.3760    -1.4340 ho         1 FSM       0.415000
     55 C7A         -1.7150     0.5150    -1.7260 c          1 FSM       0.672100
     56 HAH         -2.4730    -3.1580    -2.3860 ho         1 FSM       0.402000
     57 C7B          1.6640    -5.1130     1.5290 c          1 FSM       0.682100
@<TRIPOS>BOND
     1     1     2 1
     2     1     7 1
     3     1    12 1
     4     1    28 1
     5     2     3 1
     6     2     9 1
     7     2    29 1
     8     3     4 1
     9     3    10 1
    10     3    30 1
    11     4     5 1
    12     4    11 1
    13     4    31 1
    14     5    13 1
    15     5    32 1
    16     5    33 1
    17    55     6 1
    18    55     7 1
    19    55    14 2
    20     6    34 1
    21     6    35 1
    22     6    36 1
    23     7    37 1
    24     8    18 1
    25     8    56 1
    26     9    38 1
    27    10    39 1
    28    11    12 1
    29    12    24 1
    30    12    40 1
    31    13    41 1
    32    15    16 1
    33    15    23 1
    34    15    25 1
    35    15    42 1
    36    16    17 1
    37    16    22 1
    38    16    43 1
    39    17    18 1
    40    17    24 1
    41    17    44 1
    42    18    19 1
    43    18    45 1
    44    19    20 1
    45    19    25 1
    46    19    46 1
    47    20    26 1
    48    20    47 1
    49    20    48 1
    50    57    21 1
    51    57    22 1
    52    57    27 2
    53    21    49 1
    54    21    50 1
    55    21    51 1
    56    22    52 1
    57    23    53 1
    58    26    54 1
@<TRIPOS>SUBSTRUCTURE
     1 FSM         1 TEMP              0 ****  ****    0 ROOT
