@<TRIPOS>MOLECULE
FSM
   57    58     1     0     0
SMALL
bcc


@<TRIPOS>ATOM
      1 C2A          0.0000     0.0000     0.0000 c3         1 FSM      -0.020300
      2 C3A          1.5330     0.0000     0.0000 c3         1 FSM       0.168100
      3 C4A          2.0680     0.0000     1.4370 c3         1 FSM       0.149100
      4 C5A          1.4400    -1.1500     2.2340 c3         1 FSM       0.153100
      5 C6A          1.8490    -1.1470     3.7030 c3         1 FSM       0.228400
      6 C8A         -2.0650     0.3090    -3.1620 c3         1 FSM      -0.087100
      7 N2A         -0.5270    -0.0770    -1.3430 ns         1 FSM      -0.185900
      8 O1A         -1.8360    -3.4270    -1.7460 oh         1 FSM      -0.565800
      9 O3A          2.0110     1.1530    -0.6900 oh         1 FSM      -0.572800
     10 O4A          1.7390     1.2520     2.0450 oh         1 FSM      -0.562800
     11 O5A          0.0070    -1.0680     2.1930 os         1 FSM      -0.388600
     12 C1          -0.5370    -1.1440     0.8720 c3         1 FSM       0.352900
     13 O6A          1.2130    -2.2340     4.3510 oh         1 FSM      -0.592800
     14 O7A         -2.4660     1.1660    -1.0090 o          1 FSM      -0.634100
     15 C1B         -1.7100    -5.8390     0.7670 c3         1 FSM       0.406900
     16 C2B         -0.6240    -4.7610     0.6270 c3         1 FSM      -0.034300
     17 C3B         -1.2540    -3.3630     0.5860 c3         1 FSM       0.173100
     18 C4B         -2.3920    -3.2970    -0.4360 c3         1 FSM       0.135100
     19 C5B         -3.3910    -4.4290    -0.1740 c3         1 FSM       0.151100
     20 C6B         -4.5220    -4.4690    -1.1940 c3         1 FSM       0.220400
     21 C8B          2.4540    -5.1700     2.7950 c3         1 FSM      -0.089100
     22 N2B          0.3200    -4.8590     1.7170 ns         1 FSM      -0.189900
     23 O1B         -1.1300    -7.1390     0.6680 oh         1 FSM      -0.560800
     24 O3B         -0.2600    -2.4040     0.2620 os         1 FSM      -0.394600
     25 O5B         -2.7170    -5.6900    -0.2360 os         1 FSM      -0.418600
     26 O6B         -5.2300    -3.2440    -1.1320 oh         1 FSM      -0.595800
     27 O7B          2.2310    -5.2850     0.4560 o          1 FSM      -0.630100
     28 HAA         -0.3310     0.9340     0.4390 h1         1 FSM       0.086700
     29 HAB          1.8850    -0.8910    -0.5060 h1         1 FSM       0.017700
     30 HAD          3.1440    -0.1240     1.4180 h1         1 FSM       0.006700
     31 HAF          1.7450    -2.0870     1.7860 h1         1 FSM       0.033700
     32 HAA1         2.9240    -1.2550     3.7820 h1         1 FSM      -0.001300
     33 HAA2         1.5410    -0.2170     4.1650 h1         1 FSM      -0.001300
     34 HA'1        -1.5710    -0.5830    -3.5300 hc         1 FSM       0.024700
     35 HA'2        -1.7390     1.1650    -3.7400 hc         1 FSM       0.024700
     36 HA'3        -3.1370     0.1940    -3.2600 hc         1 FSM       0.024700
     37 HA'         -0.0040    -0.5830    -2.0310 hn         1 FSM       0.182500
     38 HAC          2.7320     0.9100    -1.2470 ho         1 FSM       0.388000
     39 HAE          2.5210     1.7720     2.1360 ho         1 FSM       0.390000
     40 H1          -1.6110    -1.0310     0.9470 h2         1 FSM       0.040700
     41 HAG          1.1690    -2.0660     5.2770 ho         1 FSM       0.393000
     42 HBE         -2.1750    -5.7340     1.7400 h2         1 FSM      -0.026300
     43 HBB         -0.0980    -4.9250    -0.3060 h1         1 FSM       0.099700
     44 HB'         -1.6560    -3.1370     1.5660 h1         1 FSM       0.021700
     45 HBA         -2.8990    -2.3440    -0.3470 h1         1 FSM       0.031700
     46 HBC         -3.8090    -4.3040     0.8170 h1         1 FSM       0.015700
     47 HB'1        -4.1130    -4.6030    -2.1880 h1         1 FSM       0.002200
     48 HB'2        -5.1920    -5.2880    -0.9630 h1         1 FSM       0.002200
     49 HBA1         2.8600    -6.1660     2.9230 hc         1 FSM       0.024700
     50 HBA2         1.8210    -4.9260     3.6400 hc         1 FSM       0.024700
     51 HBA3         3.2650    -4.4550     2.7330 hc         1 FSM       0.024700
     52 HBG         -0.0170    -4.7400     2.6520 hn         1 FSM       0.178500
     53 HBF         -1.7520    -7.7840     0.9610 ho         1 FSM       0.397000
     54 HBD         -6.1140    -3.3760    -1.4340 ho         1 FSM       0.400000
     55 C7A         -1.7150     0.5150    -1.7260 c          1 FSM       0.589100
     56 HAH         -2.4730    -3.1580    -2.3860 ho         1 FSM       0.391000
     57 C7B          1.6640    -5.1130     1.5290 c          1 FSM       0.600100
@<TRIPOS>BOND
     1     1     2 1   
     2     1     7 1   
     3     1    12 1   
     4     1    28 1   
     5     2     3 1   
     6     2     9 1   
     7     2    29 1   
     8     3     4 1   
     9     3    10 1   
    10     3    30 1   
    11     4     5 1   
    12     4    11 1   
    13     4    31 1   
    14     5    13 1   
    15     5    32 1   
    16     5    33 1   
    17     6    34 1   
    18     6    35 1   
    19     6    36 1   
    20     6    55 1   
    21     7    37 1   
    22     7    55 1   
    23     8    18 1   
    24     8    56 1   
    25     9    38 1   
    26    10    39 1   
    27    11    12 1   
    28    12    24 1   
    29    12    40 1   
    30    13    41 1   
    31    14    55 2   
    32    15    16 1   
    33    15    23 1   
    34    15    25 1   
    35    15    42 1   
    36    16    17 1   
    37    16    22 1   
    38    16    43 1   
    39    17    18 1   
    40    17    24 1   
    41    17    44 1   
    42    18    19 1   
    43    18    45 1   
    44    19    20 1   
    45    19    25 1   
    46    19    46 1   
    47    20    26 1   
    48    20    47 1   
    49    20    48 1   
    50    21    49 1   
    51    21    50 1   
    52    21    51 1   
    53    21    57 1   
    54    22    52 1   
    55    22    57 1   
    56    23    53 1   
    57    26    54 1   
    58    27    57 2   
@<TRIPOS>SUBSTRUCTURE
     1 FSM         1 TEMP              0 ****  ****    0 ROOT
