@<TRIPOS>MOLECULE
FSN
   55    59     1     0     0
SMALL
bcc


@<TRIPOS>ATOM
      1 O21          0.0000     0.0000     0.0000 o          1 FSN      -0.682500
      2 C20          1.2120     0.0000     0.0000 c          1 FSN       0.646500
      3 N19          1.9940     0.0000     1.1040 n          1 FSN      -0.111400
      4 C23          1.4410     0.0060     2.4600 c3         1 FSN       0.111300
      5 C24          1.2500     1.4280     2.9190 ca         1 FSN      -0.179300
      6 C32          0.0530     2.0770     2.6780 ca         1 FSN      -0.053500
      7 C31         -0.1240     3.3810     3.0980 ca         1 FSN      -0.128500
      8 C30          0.8980     4.0390     3.7600 ca         1 FSN       0.142900
      9 F29          0.7270     5.3150     4.1720 f          1 FSN      -0.112900
     10 C26          2.0960     3.3890     4.0020 ca         1 FSN      -0.128500
     11 C25          2.2690     2.0820     3.5860 ca         1 FSN      -0.053500
     12 C17          3.3090     0.0010     0.8580 c          1 FSN       0.629500
     13 O18          4.1790     0.0080     1.7020 o          1 FSN      -0.562500
     14 C16          3.5400    -0.0060    -0.6360 c3         1 FSN      -0.136700
     15 C15          4.1500    -1.3570    -1.0630 c3         1 FSN       0.155500
     16 N11          2.9640    -2.2480    -1.2850 n3         1 FSN      -0.559600
     17 C12          3.4210    -3.1840    -2.3660 c3         1 FSN       0.148800
     18 C13          4.3320    -2.3600    -3.2970 c3         1 FSN      -0.048400
     19 C14          4.8240    -1.1790    -2.4390 c3         1 FSN      -0.051400
     20 C10          1.9690    -1.3670    -1.9390 c3         1 FSN       0.135800
     21 C7           0.5790    -1.9210    -1.7570 ca         1 FSN       0.125700
     22 C8          -0.3440    -1.8140    -2.7810 ca         1 FSN      -0.050500
     23 C9          -1.6180    -2.3200    -2.6210 ca         1 FSN      -0.011500
     24 C4          -1.9740    -2.9400    -1.4220 ca         1 FSN      -0.267900
     25 C5          -1.0390    -3.0390    -0.3910 ca         1 FSN      -0.011500
     26 C6           0.2330    -2.5340    -0.5660 ca         1 FSN      -0.050500
     27 C3          -3.3380    -3.4830    -1.2450 ce         1 FSN       0.007800
     28 N1          -4.3670    -2.9210    -1.8760 nv         1 FSN       0.333900
     29 N2          -3.5370    -4.5350    -0.4520 nz         1 FSN       0.166400
     30 C22          2.1030    -0.0080    -1.2210 c3         1 FSN      -0.135700
     31 H231         2.1240    -0.5010     3.1310 h1         1 FSN       0.040200
     32 H232         0.4860    -0.5060     2.4630 h1         1 FSN       0.040200
     33 H32         -0.7470     1.5620     2.1590 ha         1 FSN       0.115000
     34 H31         -1.0620     3.8890     2.9080 ha         1 FSN       0.130500
     35 H26          2.8960     3.9020     4.5230 ha         1 FSN       0.130500
     36 H25          3.2060     1.5730     3.7750 ha         1 FSN       0.115000
     37 H16          4.1230     0.8430    -0.9730 hc         1 FSN       0.096700
     38 H15          4.8300    -1.7550    -0.3190 h1         1 FSN       0.085700
     39 H121         3.9790    -4.0060    -1.9330 h1         1 FSN       0.028200
     40 H122         2.5670    -3.5570    -2.9180 h1         1 FSN       0.028200
     41 H131         3.7670    -1.9950    -4.1460 hc         1 FSN       0.035700
     42 H132         5.1720    -2.9590    -3.6250 hc         1 FSN       0.035700
     43 H141         5.9010    -1.2180    -2.3340 hc         1 FSN       0.042200
     44 H142         4.5180    -0.2400    -2.8850 hc         1 FSN       0.042200
     45 H10          2.2010    -1.2580    -2.9920 h1         1 FSN       0.071700
     46 H8          -0.0660    -1.3330    -3.7110 ha         1 FSN       0.159500
     47 H9          -2.3140    -2.3080    -3.4520 ha         1 FSN       0.107000
     48 H5          -1.2930    -3.5650     0.5210 ha         1 FSN       0.107000
     49 H6           0.9730    -2.6520     0.2160 ha         1 FSN       0.159500
     50 HN11        -4.2180    -2.1310    -2.4710 hn         1 FSN       0.160200
     51 HN12        -5.2900    -3.2900    -1.7550 hn         1 FSN       0.160200
     52 HN21        -4.3870    -4.9930    -0.7140 hn         1 FSN       0.252800
     53 HN22        -2.7720    -5.1730    -0.5460 hn         1 FSN       0.252800
     54 H22          1.9210     0.8330    -1.8790 hc         1 FSN       0.085700
     55 H23         -3.6020    -4.2290     0.4980 hn         1 FSN       0.252800
@<TRIPOS>BOND
     1     1     2 2   
     2     2     3 1   
     3     2    30 1   
     4     3     4 1   
     5     3    12 1   
     6     4     5 1   
     7     4    31 1   
     8     4    32 1   
     9     5     6 ar  
    10     5    11 ar  
    11     6     7 ar  
    12     6    33 1   
    13     7     8 ar  
    14     7    34 1   
    15     8     9 1   
    16     8    10 ar  
    17    10    11 ar  
    18    10    35 1   
    19    11    36 1   
    20    12    13 2   
    21    12    14 1   
    22    14    15 1   
    23    14    30 1   
    24    14    37 1   
    25    15    16 1   
    26    15    19 1   
    27    15    38 1   
    28    16    17 1   
    29    16    20 1   
    30    17    18 1   
    31    17    39 1   
    32    17    40 1   
    33    18    19 1   
    34    18    41 1   
    35    18    42 1   
    36    19    43 1   
    37    19    44 1   
    38    20    21 1   
    39    20    30 1   
    40    20    45 1   
    41    21    22 ar  
    42    21    26 ar  
    43    22    23 ar  
    44    22    46 1   
    45    23    24 ar  
    46    23    47 1   
    47    24    25 ar  
    48    24    27 1   
    49    25    26 ar  
    50    25    48 1   
    51    26    49 1   
    52    27    28 2   
    53    27    29 1   
    54    28    50 1   
    55    28    51 1   
    56    29    52 1   
    57    29    53 1   
    58    29    55 1   
    59    30    54 1   
@<TRIPOS>SUBSTRUCTURE
     1 FSN         1 TEMP              0 ****  ****    0 ROOT
