@<TRIPOS>MOLECULE
FSP
   61    63     1     0     0
SMALL
bcc


@<TRIPOS>ATOM
      1 C1           0.0000     0.0000     0.0000 c3         1 FSP       0.007900
      2 C2           1.5300     0.0000     0.0000 c3         1 FSP      -0.027400
      3 C3           2.0400     0.0000     1.4430 c3         1 FSP      -0.044400
      4 C4           3.5700    -0.0000     1.4430 c3         1 FSP      -0.036400
      5 C5           4.0790    -0.0000     2.8850 c3         1 FSP      -0.049300
      6 N6           3.6920     1.2510     3.5400 ns         1 FSP      -0.171900
      7 C7           2.4750     1.3670     4.1070 c          1 FSP       0.685100
      8 O8           1.6990     0.4320     4.0750 o          1 FSP      -0.656000
      9 O9           2.1190     2.5170     4.7090 os         1 FSP      -0.430900
     10 C10          0.8070     2.6420     5.3200 c3         1 FSP       0.256400
     11 C11          0.6580     4.0370     5.9290 cy         1 FSP      -0.098000
     12 C12          0.9380     5.1570     4.9240 c3         1 FSP       0.054900
     13 C13         -0.1000     5.1220     3.8320 ca         1 FSP      -0.101300
     14 C14         -1.2590     5.8660     3.9570 ca         1 FSP      -0.076000
     15 C15         -2.2120     5.8350     2.9560 ca         1 FSP      -0.129500
     16 C16         -2.0050     5.0600     1.8280 ca         1 FSP       0.101900
     17 F17         -2.9350     5.0290     0.8490 f          1 FSP      -0.128900
     18 C18         -0.8430     4.3160     1.7040 ca         1 FSP      -0.129500
     19 C19          0.1100     4.3530     2.7040 ca         1 FSP      -0.076000
     20 C20         -0.6490     4.2280     6.7170 cy         1 FSP      -0.036900
     21 C21          0.1790     5.0150     7.7460 cy         1 FSP      -0.047400
     22 C22          1.3970     4.2080     7.2660 cy         1 FSP      -0.036900
     23 O26          5.5320    -2.4040     2.3470 o          1 FSP      -0.590100
     24 N27          7.5640    -1.5450     2.5920 ns         1 FSP       0.047900
     25 C28          8.1620    -2.7710     2.3150 cc         1 FSP      -0.278700
     26 C29          7.5160    -3.9370     2.0320 cd         1 FSP      -0.334300
     27 C30          8.4840    -4.9200     1.8150 cd         1 FSP       0.407200
     28 N31          9.6650    -4.3800     1.9670 nc         1 FSP      -0.650800
     29 N32          9.4960    -3.0260     2.2820 na         1 FSP       0.417400
     30 C23          5.5810    -0.1230     2.8870 c          1 FSP       0.548100
     31 O24          6.2670     0.8420     3.1290 o          1 FSP      -0.544100
     32 H11         -0.3610     0.0940    -1.0170 hc         1 FSP       0.001700
     33 H12         -0.3610     0.8340     0.5900 hc         1 FSP       0.001700
     34 H13         -0.3610    -0.9280     0.4270 hc         1 FSP       0.001700
     35 H21          1.8910    -0.8850    -0.5110 hc         1 FSP       0.009200
     36 H22          1.8910     0.8850    -0.5110 hc         1 FSP       0.009200
     37 H31          1.6780     0.8850     1.9530 hc         1 FSP       0.037700
     38 H32A         1.6780    -0.8850     1.9530 hc         1 FSP       0.037700
     39 H41          3.9310    -0.8850     0.9320 hc         1 FSP       0.027200
     40 H42          3.9310     0.8850     0.9320 hc         1 FSP       0.027200
     41 H5           3.6480    -0.8370     3.4210 h1         1 FSP       0.091700
     42 HN6          4.3390     2.0140     3.5840 hn         1 FSP       0.193500
     43 H101         0.0420     2.4930     4.5670 h1         1 FSP       0.018200
     44 H102         0.6980     1.8950     6.0970 h1         1 FSP       0.018200
     45 H121         1.9210     5.0170     4.4920 hc         1 FSP       0.028700
     46 H122         0.8980     6.1140     5.4300 hc         1 FSP       0.028700
     47 H14         -1.4200     6.4730     4.8400 ha         1 FSP       0.113500
     48 H15         -3.1200     6.4180     3.0540 ha         1 FSP       0.119500
     49 H18         -0.6790     3.7100     0.8210 ha         1 FSP       0.119500
     50 H19          1.0190     3.7710     2.6070 ha         1 FSP       0.113500
     51 H201        -1.0450     3.3010     7.1120 hc         1 FSP       0.031950
     52 H202        -1.3720     4.8440     6.1960 hc         1 FSP       0.031950
     53 H211         0.2530     6.0710     7.5140 hc         1 FSP       0.026200
     54 H212        -0.0980     4.7950     8.7700 hc         1 FSP       0.026200
     55 H221         1.5250     3.2750     7.8020 hc         1 FSP       0.031950
     56 H222         2.2960     4.8070     7.1800 hc         1 FSP       0.031950
     57 H27          8.1310    -0.7470     2.7960 hn         1 FSP       0.172500
     58 H29          6.4430    -4.0750     1.9790 ha         1 FSP       0.185000
     59 H30          8.2890    -5.9570     1.5680 h4         1 FSP       0.006100
     60 H32         10.2270    -2.3650     2.4530 hn         1 FSP       0.147700
     61 C25          6.2210    -1.4350     2.5900 c          1 FSP       0.463100
@<TRIPOS>BOND
     1     1     2 1   
     2     1    32 1   
     3     1    33 1   
     4     1    34 1   
     5     2     3 1   
     6     2    35 1   
     7     2    36 1   
     8     3     4 1   
     9     3    37 1   
    10     3    38 1   
    11     4     5 1   
    12     4    39 1   
    13     4    40 1   
    14     5     6 1   
    15     5    30 1   
    16     5    41 1   
    17     6     7 1   
    18     6    42 1   
    19     7     8 2   
    20     7     9 1   
    21     9    10 1   
    22    10    11 1   
    23    10    43 1   
    24    10    44 1   
    25    11    12 1   
    26    11    20 1   
    27    11    22 1   
    28    12    13 1   
    29    12    45 1   
    30    12    46 1   
    31    13    14 ar  
    32    13    19 ar  
    33    14    15 ar  
    34    14    47 1   
    35    15    16 ar  
    36    15    48 1   
    37    16    17 1   
    38    16    18 ar  
    39    18    19 ar  
    40    18    49 1   
    41    19    50 1   
    42    20    21 1   
    43    20    51 1   
    44    20    52 1   
    45    21    22 1   
    46    21    53 1   
    47    21    54 1   
    48    22    55 1   
    49    22    56 1   
    50    23    61 2   
    51    24    25 1   
    52    24    57 1   
    53    24    61 1   
    54    25    26 2   
    55    25    29 1   
    56    26    27 1   
    57    26    58 1   
    58    27    28 2   
    59    27    59 1   
    60    28    29 1   
    61    29    60 1   
    62    30    31 2   
    63    30    61 1   
@<TRIPOS>SUBSTRUCTURE
     1 FSP         1 TEMP              0 ****  ****    0 ROOT
