@<TRIPOS>MOLECULE
FSR
   38    38     1     0     0
SMALL
bcc


@<TRIPOS>ATOM
      1 O1B          0.0000     0.0000     0.0000 o          1 FSR      -0.857300
      2 C1           1.3420     0.0000     0.0000 c          1 FSR       0.932600
      3 O1A          1.9470    -0.0000    -1.0470 o          1 FSR      -0.857300
      4 C2           2.0950     0.0000     1.3060 c3         1 FSR       0.245100
      5 C3           1.4480    -0.9990     2.2690 c3         1 FSR       0.135600
      6 F1           0.1020    -0.6630     2.4550 f          1 FSR      -0.209300
      7 C4           1.5470    -2.4070     1.6750 c3         1 FSR       0.141100
      8 O4           1.0110    -3.3550     2.6000 oh         1 FSR      -0.574800
      9 O6           3.4530    -0.3780     1.0730 os         1 FSR      -0.374600
     10 C6           3.6060    -1.6660     0.4740 c3         1 FSR       0.160100
     11 C7           5.0920    -1.9510     0.2460 c3         1 FSR       0.188100
     12 C8           5.6790    -0.8860    -0.6820 c3         1 FSR       0.159100
     13 C9           7.1650    -1.1700    -0.9090 c3         1 FSR       0.174400
     14 O9           7.6850    -0.2450    -1.8670 oh         1 FSR      -0.590800
     15 O8           5.5260     0.4040    -0.0840 oh         1 FSR      -0.550800
     16 O7           5.2440    -3.2400    -0.3520 oh         1 FSR      -0.593800
     17 C5           3.0200    -2.7320     1.4040 c3         1 FSR      -0.025300
     18 N5           3.1210    -4.0470     0.7670 ns         1 FSR      -0.160900
     19 C10          3.1490    -5.1620     1.5230 c          1 FSR       0.559100
     20 O10          3.0890    -5.0770     2.7320 o          1 FSR      -0.649100
     21 C11          3.2530    -6.5160     0.8680 c3         1 FSR      -0.067100
     22 H3           1.9670    -0.9710     3.2190 h1         1 FSR       0.027700
     23 H4           0.9910    -2.4460     0.7450 h1         1 FSR       0.052700
     24 H5           0.0730    -3.3830     2.5140 ho         1 FSR       0.390000
     25 H6           3.0810    -1.6870    -0.4730 h1         1 FSR       0.084700
     26 H7           5.6130    -1.9290     1.1950 h1         1 FSR       0.011700
     27 H8           5.1580    -0.9080    -1.6320 h1         1 FSR       0.039700
     28 H9           7.2870    -2.1800    -1.2800 h1         1 FSR      -0.013300
     29 H10          7.7010    -1.0610     0.0260 h1         1 FSR      -0.013300
     30 H11          8.5850    -0.4580    -2.0540 ho         1 FSR       0.381000
     31 H12          5.7310     1.0710    -0.7180 ho         1 FSR       0.395000
     32 H13          6.0720    -3.6110    -0.0930 ho         1 FSR       0.385000
     33 H14          3.5660    -2.7340     2.3390 h1         1 FSR       0.062700
     34 H15          3.1290    -4.1200    -0.2310 hn         1 FSR       0.184500
     35 H16          4.2830    -6.7040     0.5900 hc         1 FSR       0.013367
     36 H17          2.9200    -7.2790     1.5620 hc         1 FSR       0.013367
     37 H18          2.6300    -6.5370    -0.0180 hc         1 FSR       0.013367
     38 F2           2.0570     1.2810     1.8660 f          1 FSR      -0.214300
@<TRIPOS>BOND
     1     1     2 1   
     2     2     3 1   
     3     2     4 1   
     4     4     5 1   
     5     4     9 1   
     6     4    38 1   
     7     5     6 1   
     8     5     7 1   
     9     5    22 1   
    10     7     8 1   
    11     7    17 1   
    12     7    23 1   
    13     8    24 1   
    14     9    10 1   
    15    10    11 1   
    16    10    17 1   
    17    10    25 1   
    18    11    12 1   
    19    11    16 1   
    20    11    26 1   
    21    12    13 1   
    22    12    15 1   
    23    12    27 1   
    24    13    14 1   
    25    13    28 1   
    26    13    29 1   
    27    14    30 1   
    28    15    31 1   
    29    16    32 1   
    30    17    18 1   
    31    17    33 1   
    32    18    19 1   
    33    18    34 1   
    34    19    20 2   
    35    19    21 1   
    36    21    35 1   
    37    21    36 1   
    38    21    37 1   
@<TRIPOS>SUBSTRUCTURE
     1 FSR         1 TEMP              0 ****  ****    0 ROOT
