@<TRIPOS>MOLECULE
FSS
   60    63     1     0     0
SMALL
bcc


@<TRIPOS>ATOM
      1 N3           0.0000     0.0000     0.0000 nb         1 FSS      -0.728000
      2 C4           1.3250     0.0000     0.0000 ca         1 FSS       0.734900
      3 C6           1.4260    -0.0000     2.3040 ca         1 FSS       0.534200
      4 C7           0.0530    -0.0010     2.3410 ca         1 FSS      -0.462900
      5 C8          -0.6690    -0.0010     1.1460 ca         1 FSS       0.464200
      6 C10         -2.7570    -0.0000     2.3170 c          1 FSS       0.618500
      7 C15         -3.3740    -1.2030     5.2640 ca         1 FSS      -0.014600
      8 C17         -4.5440    -0.0010     6.9750 ca         1 FSS      -0.068000
      9 C22          3.3900    -0.1160    -1.2420 ca         1 FSS      -0.050400
     10 C24          5.4100    -1.0770    -0.3790 ca         1 FSS      -0.157000
     11 C26          5.5050     0.4870    -2.2000 ca         1 FSS      -0.157000
     12 N38          1.9950     0.0000    -1.2130 nu         1 FSS      -0.277300
     13 C23          4.0360    -0.9580    -0.3450 ca         1 FSS      -0.071000
     14 C25          6.1470    -0.3570    -1.3070 ca         1 FSS       0.149100
     15 O28          7.5020    -0.4790    -1.3430 os         1 FSS      -0.299900
     16 C29          8.1970     0.2910    -2.3250 c3         1 FSS       0.362600
     17 N30          8.3420     1.6730    -1.8490 n3         1 FSS      -0.567600
     18 C32          9.4710     1.7950    -0.9180 c3         1 FSS       0.154300
     19 C33          9.0720     1.2240     0.4440 c3         1 FSS      -0.003600
     20 C31          8.4870     2.6050    -2.9770 c3         1 FSS       0.154300
     21 C34          8.2160     4.0310    -2.4980 c3         1 FSS      -0.003600
     22 C27          4.1290     0.6040    -2.1720 ca         1 FSS      -0.071000
     23 N5           2.0290     0.0000     1.1210 nb         1 FSS      -0.714000
     24 N9          -2.0530    -0.0010     1.1780 n          1 FSS      -0.039300
     25 C37         -2.7800     0.0000    -0.0940 c3         1 FSS       0.054300
     26 O34         -3.9710    -0.0010     2.2470 o          1 FSS      -0.712500
     27 N11         -2.1880    -0.0010     3.5360 n          1 FSS      -0.034000
     28 C14         -2.9810    -0.0010     4.6910 ca         1 FSS      -0.047400
     29 C16         -4.1530    -1.1990     6.4060 ca         1 FSS      -0.097000
     30 C18         -4.1570     1.1970     6.4030 ca         1 FSS      -0.097000
     31 C19         -3.3750     1.2020     5.2640 ca         1 FSS      -0.014600
     32 Cl35        -2.8910     2.7070     4.5470 cl         1 FSS      -0.003900
     33 C12         -0.7170    -0.0000     3.6390 c3         1 FSS       0.130300
     34 H6           2.0040    -0.0000     3.2200 h4         1 FSS      -0.014900
     35 H17         -5.1560    -0.0000     7.8690 ha         1 FSS       0.110000
     36 H24          5.9140    -1.7350     0.3200 ha         1 FSS       0.120500
     37 H26          6.0810     1.0480    -2.9250 ha         1 FSS       0.120500
     38 HN38         1.4810     0.0750    -2.0680 hn         1 FSS       0.291800
     39 H23          3.4610    -1.5200     0.3810 ha         1 FSS       0.115000
     40 H29          9.1770    -0.1380    -2.4930 h2         1 FSS       0.016700
     41 H29A         7.6360     0.2840    -3.2520 h2         1 FSS       0.016700
     42 H32          9.7380     2.8390    -0.8080 h1         1 FSS       0.006950
     43 H32A        10.3200     1.2440    -1.3050 h1         1 FSS       0.006950
     44 H33          9.1330     0.1430     0.4150 hc         1 FSS       0.010367
     45 H33A         8.0560     1.5220     0.6760 hc         1 FSS       0.010367
     46 H33B         9.7430     1.6030     1.2050 hc         1 FSS       0.010367
     47 H31          9.4950     2.5410    -3.3700 h1         1 FSS       0.006950
     48 H31A         7.7790     2.3440    -3.7550 h1         1 FSS       0.006950
     49 H34          9.1570     4.5360    -2.3150 hc         1 FSS       0.010367
     50 H34A         7.6390     4.0000    -1.5810 hc         1 FSS       0.010367
     51 H34B         7.6600     4.5680    -3.2570 hc         1 FSS       0.010367
     52 H27          3.6260     1.2630    -2.8690 ha         1 FSS       0.115000
     53 H37         -2.3580     0.7500    -0.7520 h1         1 FSS       0.029367
     54 H37A        -3.8240     0.2250     0.0870 h1         1 FSS       0.029367
     55 H37B        -2.6970    -0.9750    -0.5590 h1         1 FSS       0.029367
     56 H16         -4.4590    -2.1360     6.8550 ha         1 FSS       0.118000
     57 H18         -4.4650     2.1340     6.8510 ha         1 FSS       0.118000
     58 H12         -0.4220     0.8780     4.2000 h1         1 FSS       0.018700
     59 H12A        -0.4220    -0.8790     4.2010 h1         1 FSS       0.018700
     60 Cl36        -2.8850    -2.7090     4.5510 cl         1 FSS      -0.003900
@<TRIPOS>BOND
     1     1     2 ar  
     2     1     5 ar  
     3     2    12 1   
     4     2    23 ar  
     5     3     4 ar  
     6     3    23 ar  
     7     3    34 1   
     8     4     5 ar  
     9     4    33 1   
    10     5    24 1   
    11     6    24 1   
    12     6    26 2   
    13     6    27 1   
    14     7    28 ar  
    15     7    29 ar  
    16     7    60 1   
    17     8    29 ar  
    18     8    30 ar  
    19     8    35 1   
    20     9    12 1   
    21     9    13 ar  
    22     9    22 ar  
    23    10    13 ar  
    24    10    14 ar  
    25    10    36 1   
    26    11    14 ar  
    27    11    22 ar  
    28    11    37 1   
    29    12    38 1   
    30    13    39 1   
    31    14    15 1   
    32    15    16 1   
    33    16    17 1   
    34    16    40 1   
    35    16    41 1   
    36    17    18 1   
    37    17    20 1   
    38    18    19 1   
    39    18    42 1   
    40    18    43 1   
    41    19    44 1   
    42    19    45 1   
    43    19    46 1   
    44    20    21 1   
    45    20    47 1   
    46    20    48 1   
    47    21    49 1   
    48    21    50 1   
    49    21    51 1   
    50    22    52 1   
    51    24    25 1   
    52    25    53 1   
    53    25    54 1   
    54    25    55 1   
    55    27    28 1   
    56    27    33 1   
    57    28    31 ar  
    58    29    56 1   
    59    30    31 ar  
    60    30    57 1   
    61    31    32 1   
    62    33    58 1   
    63    33    59 1   
@<TRIPOS>SUBSTRUCTURE
     1 FSS         1 TEMP              0 ****  ****    0 ROOT
