@<TRIPOS>MOLECULE
molecule
   35    35     1     0     0
SMALL
bcc


@<TRIPOS>ATOM
      1 C1           0.0000     0.0000     0.0000 c3         1 FST      -0.108800
      2 S2           1.8140     0.0000     0.0000 sx         1 FST       0.351400
      3 O3           2.2870     0.0000     1.3390 o          1 FST      -0.515200
      4 C4           2.2110    -1.6230    -0.5610 ca         1 FST      -0.106500
      5 C5           2.3660    -1.8670    -1.9130 ca         1 FST      -0.046500
      6 C6           2.6770    -3.1380    -2.3550 ca         1 FST      -0.123000
      7 C7           2.8330    -4.1700    -1.4420 ca         1 FST       0.110100
      8 C8           2.6770    -3.9220    -0.0860 ca         1 FST      -0.123000
      9 C9           2.3710    -2.6480     0.3520 ca         1 FST      -0.046500
     10 O10          3.1390    -5.4220    -1.8740 os         1 FST      -0.419500
     11 P11          4.7190    -5.7120    -1.9750 p5         1 FST       1.335200
     12 S12          5.5660    -4.2660    -2.7900 s          1 FST      -0.700000
     13 O13          5.3210    -5.9240    -0.4970 os         1 FST      -0.580200
     14 C14          6.7210    -5.8890    -0.2150 c3         1 FST       0.193900
     15 C15          6.9460    -6.1250     1.2800 c3         1 FST      -0.094600
     16 O16          4.9650    -7.0410    -2.8510 os         1 FST      -0.580200
     17 C17          6.2420    -7.3950    -3.3860 c3         1 FST       0.193900
     18 C18          6.1240    -8.7090    -4.1600 c3         1 FST      -0.094600
     19 H1          -0.3610     0.9300     0.4220 h1         1 FST       0.075700
     20 H1A         -0.3610    -0.8300     0.5950 h1         1 FST       0.075700
     21 H5           2.2440    -1.0610    -2.6260 ha         1 FST       0.150000
     22 H6           2.7980    -3.3280    -3.4150 ha         1 FST       0.154000
     23 H8           2.8000    -4.7270     0.6290 ha         1 FST       0.154000
     24 H9           2.2490    -2.4550     1.4110 ha         1 FST       0.150000
     25 H14          7.1220    -4.9220    -0.4920 h1         1 FST       0.051450
     26 H14A         7.2230    -6.6640    -0.7820 h1         1 FST       0.051450
     27 H15          8.0020    -6.2790     1.4660 hc         1 FST       0.052367
     28 H15A         6.3930    -7.0020     1.5940 hc         1 FST       0.052367
     29 H15B         6.6030    -5.2620     1.8370 hc         1 FST       0.052367
     30 H17          6.5850    -6.6130    -4.0520 h1         1 FST       0.051450
     31 H17A         6.9520    -7.5170    -2.5760 h1         1 FST       0.051450
     32 H18          5.6810    -9.4650    -3.5240 hc         1 FST       0.052367
     33 H18A         5.4980    -8.5590    -5.0320 hc         1 FST       0.052367
     34 H18B         7.1090    -9.0330    -4.4750 hc         1 FST       0.052367
     35 H1B         -0.3610    -0.1000    -1.0160 h1         1 FST       0.075700
@<TRIPOS>BOND
     1     1     2 1
     2     2     3 2
     3     2     4 1
     4     4     5 ar
     5     4     9 ar
     6     5     6 ar
     7     6     7 ar
     8     7     8 ar
     9     7    10 1
    10     8     9 ar
    11    10    11 1
    12    11    12 2
    13    11    13 1
    14    11    16 1
    15    13    14 1
    16    14    15 1
    17    16    17 1
    18    17    18 1
    19     1    19 1
    20     1    20 1
    21     5    21 1
    22     6    22 1
    23     8    23 1
    24     9    24 1
    25    14    25 1
    26    14    26 1
    27    15    27 1
    28    15    28 1
    29    15    29 1
    30    17    30 1
    31    17    31 1
    32    18    32 1
    33    18    33 1
    34    18    34 1
    35     1    35 1
@<TRIPOS>SUBSTRUCTURE
     1 FST         1 TEMP              0 ****  ****    0 ROOT
