@<TRIPOS>MOLECULE
FST
   35    35     1     0     0
SMALL
bcc


@<TRIPOS>ATOM
      1 C1          0.1730   -0.4760   -0.6230 c3        1 FST     -0.129800
      2 S2          1.5670   -0.6960    0.3940 sx        1 FST      0.331400
      3 O3          1.0290   -1.1100    1.7200 o         1 FST     -0.509200
      4 C4          2.2600   -2.1040   -0.3010 ca        1 FST     -0.130500
      5 C5          2.8400   -2.0340   -1.5710 ca        1 FST     -0.047000
      6 C6          3.4910   -3.1310   -2.1270 ca        1 FST     -0.148000
      7 C7          3.5750   -4.3190   -1.3800 ca        1 FST      0.150100
      8 C8          2.9760   -4.4170   -0.1130 ca        1 FST     -0.148000
      9 C9          2.3270   -3.3040    0.4130 ca        1 FST     -0.047000
     10 O10         4.1150   -5.4470   -1.9570 os        1 FST     -0.454500
     11 P11         5.6760   -5.8310   -1.8470 p5        1 FST      1.240200
     12 S12         6.9080   -4.7160   -2.7220 s         1 FST     -0.620000
     13 O13         5.8360   -6.0440   -0.2800 os        1 FST     -0.532200
     14 C14         7.0900   -5.7710    0.3360 c3        1 FST      0.149400
     15 C15         6.8950   -4.7560    1.4380 c3        1 FST     -0.118100
     16 O16         5.5780   -7.3400   -2.3420 os        1 FST     -0.532200
     17 C17         5.8190   -7.6370   -3.7120 c3        1 FST      0.149400
     18 C18         4.5410   -8.0750   -4.3890 c3        1 FST     -0.118100
     19 H1          0.4400   -0.5570   -1.7000 h1        1 FST      0.086367
     20 H1A        -0.6510   -1.1980   -0.4180 h1        1 FST      0.086367
     21 H5          2.7820   -1.0980   -2.1510 ha        1 FST      0.155500
     22 H6          3.9390   -3.0670   -3.1300 ha        1 FST      0.162500
     23 H8          3.0200   -5.3620    0.4490 ha        1 FST      0.162500
     24 H9          1.8510   -3.3620    1.4100 ha        1 FST      0.155500
     25 H14         7.8120   -5.3930   -0.4440 h1        1 FST      0.073200
     26 H14A        7.4520   -6.7470    0.7670 h1        1 FST      0.073200
     27 H15         7.8470   -4.6580    2.0130 hc        1 FST      0.054700
     28 H15A        6.6230   -3.7570    1.0210 hc        1 FST      0.054700
     29 H15B        6.0820   -5.0840    2.1300 hc        1 FST      0.054700
     30 H17         6.5630   -8.4850   -3.7100 h1        1 FST      0.073200
     31 H17A        6.2780   -6.7350   -4.2100 h1        1 FST      0.073200
     32 H18         3.8100   -7.2350   -4.4650 hc        1 FST      0.054700
     33 H18A        4.7830   -8.4360   -5.4180 hc        1 FST      0.054700
     34 H18B        4.0630   -8.9040   -3.8130 hc        1 FST      0.054700
     35 H1B        -0.2340    0.5470   -0.4390 h1        1 FST      0.086367
@<TRIPOS>BOND
     1    1    2 1   
     2    1   19 1   
     3    1   20 1   
     4    1   35 1   
     5    2    3 2   
     6    2    4 1   
     7    4    5 ar  
     8    4    9 ar  
     9    5    6 ar  
    10    5   21 1   
    11    6    7 ar  
    12    6   22 1   
    13    7    8 ar  
    14    7   10 1   
    15    8    9 ar  
    16    8   23 1   
    17    9   24 1   
    18   10   11 1   
    19   11   12 2   
    20   11   13 1   
    21   11   16 1   
    22   13   14 1   
    23   14   15 1   
    24   14   25 1   
    25   14   26 1   
    26   15   27 1   
    27   15   28 1   
    28   15   29 1   
    29   16   17 1   
    30   17   18 1   
    31   17   30 1   
    32   17   31 1   
    33   18   32 1   
    34   18   33 1   
    35   18   34 1   
@<TRIPOS>SUBSTRUCTURE
     1 FST         1 TEMP              0 ****  ****    0 ROOT
