@<TRIPOS>MOLECULE
molecule
   35    36     1     0     0
SMALL
bcc


@<TRIPOS>ATOM
      1 C1           0.0000     0.0000     0.0000 c          1 FSU       0.697100
      2 N2           1.3450     0.0000     0.0000 n          1 FSU      -0.473800
      3 C3          -0.5110     0.0000     1.3850 ca         1 FSU      -0.072600
      4 C4           0.5780     0.0000     2.2540 ca         1 FSU      -0.079300
      5 C5          -1.8150     0.0010     1.9140 ca         1 FSU      -0.146600
      6 C6           1.8150     0.0000     1.3900 c3         1 FSU       0.135300
      7 C7          -2.9850     0.0000     1.0090 c          1 FSU       0.475700
      8 O8          -0.6950     0.0040    -0.9970 o          1 FSU      -0.588500
      9 O9          -2.8220    -0.0010    -0.1960 o          1 FSU      -0.344100
     10 N10         -4.2320     0.0010     1.5200 nz         1 FSU      -0.679400
     11 C11          2.1990    -0.0000    -1.1900 c3         1 FSU       0.132000
     12 C12          0.3810     0.0020     3.6190 ca         1 FSU      -0.046000
     13 C13         -1.9970     0.0020     3.2940 ca         1 FSU      -0.123000
     14 C14          2.4970     1.4410    -1.6040 c3         1 FSU      -0.108400
     15 C15         -0.9020     0.0030     4.1380 ca         1 FSU      -0.091000
     16 O16          3.6680     2.7890    -3.2340 os         1 FSU      -0.428600
     17 C17          3.3890     1.4410    -2.8470 c3         1 FSU       0.142400
     18 C18          4.4980     2.9010    -4.3910 c3         1 FSU       0.129700
     19 H61          2.4020    -0.8900     1.5830 h1         1 FSU       0.083700
     20 HN10        -4.8990     0.0010     0.7730 hn         1 FSU       0.475133
     21 HN1A        -4.3630    -0.8150     2.0840 hn         1 FSU       0.475133
     22 H11          1.6910    -0.5110    -1.9990 h1         1 FSU       0.070700
     23 H11A         3.1280    -0.5120    -0.9670 h1         1 FSU       0.070700
     24 H12          1.2330     0.0020     4.2870 ha         1 FSU       0.167000
     25 H13         -2.9990     0.0030     3.7070 ha         1 FSU       0.115000
     26 H14          3.0060     1.9520    -0.7950 hc         1 FSU       0.063200
     27 H14A         1.5690     1.9530    -1.8260 hc         1 FSU       0.063200
     28 H15         -1.0490     0.0040     5.2120 ha         1 FSU       0.166000
     29 H17          2.8810     0.9310    -3.6560 h1         1 FSU       0.027200
     30 H17A         4.3180     0.9300    -2.6240 h1         1 FSU       0.027200
     31 H18          4.6620     3.9470    -4.6180 h1         1 FSU       0.035700
     32 H18A         4.0130     2.4210    -5.2320 h1         1 FSU       0.035700
     33 H18B         5.4500     2.4200    -4.2010 h1         1 FSU       0.035700
     34 H62          2.4020     0.8900     1.5830 h1         1 FSU       0.083700
     35 H103        -4.3700     0.8310     2.0620 hn         1 FSU       0.475133
@<TRIPOS>BOND
     1     1     2 1
     2     1     3 1
     3     1     8 2
     4     2     6 1
     5     2    11 1
     6     3     4 ar
     7     3     5 ar
     8     4     6 1
     9     4    12 ar
    10     5     7 1
    11     5    13 ar
    12     7     9 2
    13     7    10 1
    14    11    14 1
    15    12    15 ar
    16    13    15 ar
    17    14    17 1
    18    16    17 1
    19    16    18 1
    20     6    19 1
    21    10    20 1
    22    10    21 1
    23    11    22 1
    24    11    23 1
    25    12    24 1
    26    13    25 1
    27    14    26 1
    28    14    27 1
    29    15    28 1
    30    17    29 1
    31    17    30 1
    32    18    31 1
    33    18    32 1
    34    18    33 1
    35     6    34 1
    36    35    10 1
@<TRIPOS>SUBSTRUCTURE
     1 FSU         1 TEMP              0 ****  ****    0 ROOT
