@<TRIPOS>MOLECULE
FSV
   29    30     1     0     0
SMALL
bcc


@<TRIPOS>ATOM
      1 O01         0.0220    0.0860    0.1450 oh        1 FSV     -0.494600
      2 C02         1.3930    0.0980    0.0210 ca        1 FSV      0.162600
      3 C03         2.1250   -0.0140    1.2110 ca        1 FSV     -0.183500
      4 C04         3.5270   -0.0040    1.1620 ca        1 FSV      0.010200
      5 C05         4.2640   -0.1220    2.4120 ce        1 FSV     -0.111200
      6 C06         5.5340    0.2790    2.5840 cf        1 FSV     -0.091200
      7 C07         6.2730    0.1680    3.8310 ca        1 FSV     -0.067800
      8 C08         5.6300    0.0310    5.0680 ca        1 FSV     -0.093000
      9 C09         6.3630   -0.0700    6.2460 ca        1 FSV     -0.193000
     10 C10         7.7610   -0.0340    6.2050 ca        1 FSV      0.096100
     11 O11         8.5520   -0.1290    7.3240 oh        1 FSV     -0.480100
     12 C12         8.4290    0.1100    4.9630 ca        1 FSV      0.102900
     13 F13         9.7800    0.1480    4.9130 f         1 FSV     -0.124900
     14 C14         7.6750    0.2130    3.7860 ca        1 FSV     -0.125000
     15 C15         4.1840    0.1060   -0.0690 ca        1 FSV     -0.183500
     16 C16         3.4290    0.2140   -1.2460 ca        1 FSV      0.162600
     17 O17         4.1430    0.3200   -2.4180 oh        1 FSV     -0.494600
     18 C18         2.0290    0.2140   -1.2220 ca        1 FSV     -0.298000
     19 H1         -0.3590    0.1700   -0.7410 ho        1 FSV      0.420000
     20 H2          1.5920   -0.1040    2.1670 ha        1 FSV      0.153500
     21 H3          3.6920   -0.5700    3.2440 ha        1 FSV      0.131000
     22 H4          6.1010    0.7260    1.7480 ha        1 FSV      0.134000
     23 H5          4.5300    0.0100    5.1180 ha        1 FSV      0.140000
     24 H6          5.8480   -0.1760    7.2120 ha        1 FSV      0.140000
     25 H7          7.9690   -0.2220    8.0930 ho        1 FSV      0.423000
     26 H8          8.1980    0.3270    2.8250 ha        1 FSV      0.153000
     27 H9          5.2810    0.0990   -0.1350 ha        1 FSV      0.153500
     28 H10         3.5120    0.3830   -3.1490 ho        1 FSV      0.420000
     29 H11         1.4480    0.3000   -2.1480 ha        1 FSV      0.137000
@<TRIPOS>BOND
     1    1    2 1   
     2    1   19 1   
     3    2    3 ar  
     4    2   18 ar  
     5    3    4 ar  
     6    3   20 1   
     7    4    5 1   
     8    4   15 ar  
     9    5    6 2   
    10    5   21 1   
    11    6    7 1   
    12    6   22 1   
    13    7    8 ar  
    14    7   14 ar  
    15    8    9 ar  
    16    8   23 1   
    17    9   10 ar  
    18    9   24 1   
    19   10   11 1   
    20   10   12 ar  
    21   11   25 1   
    22   12   13 1   
    23   12   14 ar  
    24   14   26 1   
    25   15   16 ar  
    26   15   27 1   
    27   16   17 1   
    28   16   18 ar  
    29   17   28 1   
    30   18   29 1   
@<TRIPOS>SUBSTRUCTURE
     1 FSV         1 TEMP              0 ****  ****    0 ROOT
