@<TRIPOS>MOLECULE
molecule
   29    30     1     0     0
SMALL
bcc


@<TRIPOS>ATOM
      1 O01          0.0000     0.0000     0.0000 oh         1 FSV      -0.518100
      2 C02          1.3590     0.0000     0.0000 ca         1 FSV       0.120600
      3 C03          2.0510     0.0000     1.1990 ca         1 FSV      -0.152000
      4 C04          3.4470    -0.0010     1.1980 ca         1 FSV      -0.033800
      5 C05          4.1880    -0.0010     2.4720 ce         1 FSV      -0.105200
      6 C06          5.5310    -0.0020     2.4680 cf         1 FSV      -0.106200
      7 C07          6.2720    -0.0020     3.7420 ca         1 FSV      -0.042800
      8 C08          5.5790    -0.0090     4.9560 ca         1 FSV      -0.124000
      9 C09          6.2750    -0.0150     6.1450 ca         1 FSV      -0.136000
     10 C10          7.6640    -0.0150     6.1400 ca         1 FSV       0.071100
     11 O11          8.3460    -0.0210     7.3150 oh         1 FSV      -0.507100
     12 C12          8.3590    -0.0090     4.9350 ca         1 FSV       0.118900
     13 F13          9.7100    -0.0100     4.9360 f          1 FSV      -0.129900
     14 C14          7.6700    -0.0030     3.7390 ca         1 FSV      -0.146000
     15 C15          4.1400    -0.0010    -0.0160 ca         1 FSV      -0.152000
     16 C16          3.4390     0.0000    -1.2100 ca         1 FSV       0.120600
     17 O17          4.1120    -0.0010    -2.3910 oh         1 FSV      -0.518100
     18 C18          2.0520    -0.0050    -1.2030 ca         1 FSV      -0.179000
     19 H1          -0.3140     0.8890     0.0010 ho         1 FSV       0.421000
     20 H2           1.5100    -0.0540     2.1370 ha         1 FSV       0.145500
     21 H3           3.6490    -0.0000     3.4110 ha         1 FSV       0.137000
     22 H4           6.0700    -0.0030     1.5280 ha         1 FSV       0.139000
     23 H5           4.4950    -0.0090     4.9620 ha         1 FSV       0.140000
     24 H6           5.7380    -0.0210     7.0860 ha         1 FSV       0.146000
     25 H7           8.3380     0.8450     7.6880 ho         1 FSV       0.422000
     26 H8           8.2120     0.0020     2.8010 ha         1 FSV       0.151000
     27 H9           5.2230    -0.0020    -0.0220 ha         1 FSV       0.145500
     28 H10          4.2030     0.8850    -2.7020 ho         1 FSV       0.421000
     29 H11          1.5080    -0.0040    -2.1390 ha         1 FSV       0.151000
@<TRIPOS>BOND
     1    11    10 1
     2     9    10 ar
     3     9     8 ar
     4    10    12 ar
     5     8     7 ar
     6    12    13 1
     7    12    14 ar
     8     7    14 ar
     9     7     6 1
    10     6     5 2
    11     5     4 1
    12     4     3 ar
    13     4    15 ar
    14     3     2 ar
    15    15    16 ar
    16     2     1 1
    17     2    18 ar
    18    16    18 ar
    19    16    17 1
    20     1    19 1
    21     3    20 1
    22     5    21 1
    23     6    22 1
    24     8    23 1
    25     9    24 1
    26    11    25 1
    27    14    26 1
    28    15    27 1
    29    17    28 1
    30    18    29 1
@<TRIPOS>SUBSTRUCTURE
     1 FSV         1 TEMP              0 ****  ****    0 ROOT
