@<TRIPOS>MOLECULE
molecule
   29    29     1     0     0
SMALL
bcc


@<TRIPOS>ATOM
      1 O3           0.0000     0.0000     0.0000 oh         1 FSW      -0.593800
      2 C3           1.4290     0.0000     0.0000 c3         1 FSW       0.139100
      3 C4           1.9410     0.0000     1.4430 c3         1 FSW       0.111100
      4 O4           1.4070     1.1280     2.1390 oh         1 FSW      -0.585800
      5 C5           3.4700     0.0800     1.4340 c3         1 FSW       0.144100
      6 C6           3.9860     0.1410     2.8740 c3         1 FSW      -0.084100
      7 O5           3.8800     1.2540     0.7300 os         1 FSW      -0.422600
      8 C2           1.9410     1.2550    -0.7140 c3         1 FSW       0.070400
      9 SE2          1.3770     1.2160    -2.5910 ss         1 FSW      -0.446200
     10 C8           2.1480     2.8940    -3.2480 c3         1 FSW       0.068000
     11 C1           3.4700     1.2870    -0.6370 c3         1 FSW       0.331900
     12 O1           4.0040     0.1520    -1.3220 os         1 FSW      -0.440600
     13 C7           5.4310     0.1430    -1.4090 c3         1 FSW       0.125700
     14 H1          -0.3140    -0.7560    -0.4670 ho         1 FSW       0.408000
     15 H2           1.7960    -0.8810    -0.5120 h1         1 FSW       0.062700
     16 H3           1.6310    -0.9140     1.9350 h1         1 FSW       0.043700
     17 H4           0.6900     0.8500     2.6850 ho         1 FSW       0.407000
     18 H5           3.8730    -0.7950     0.9390 h1         1 FSW       0.053700
     19 H6           3.5760    -0.6870     3.4400 hc         1 FSW       0.048367
     20 H7           3.6810     1.0760     3.3280 hc         1 FSW       0.048367
     21 H8           5.0680     0.0770     2.8730 hc         1 FSW       0.048367
     22 H9           1.5380     2.1350    -0.2280 h1         1 FSW       0.110700
     23 H10          1.5870     3.2370    -4.1080 h1         1 FSW       0.056033
     24 H11          2.1040     3.6430    -2.4660 h1         1 FSW       0.056033
     25 H12          3.1810     2.7300    -3.5320 h1         1 FSW       0.056033
     26 H13          3.8340     2.1970    -1.0990 h2         1 FSW       0.076700
     27 H14          5.7300     0.2760    -2.4410 h1         1 FSW       0.035700
     28 H15          5.8080    -0.8040    -1.0430 h1         1 FSW       0.035700
     29 H16          5.8340     0.9490    -0.8090 h1         1 FSW       0.035700
@<TRIPOS>BOND
     1     6     5 1
     2     7     5 1
     3     7    11 1
     4     5     3 1
     5     4     3 1
     6    11    12 1
     7    11     8 1
     8     3     2 1
     9    13    12 1
    10     8     2 1
    11     8     9 1
    12     2     1 1
    13    10     9 1
    14     1    14 1
    15     2    15 1
    16     3    16 1
    17     4    17 1
    18     5    18 1
    19     6    19 1
    20     6    20 1
    21     6    21 1
    22     8    22 1
    23    10    23 1
    24    10    24 1
    25    10    25 1
    26    11    26 1
    27    13    27 1
    28    13    28 1
    29    13    29 1
@<TRIPOS>SUBSTRUCTURE
     1 FSW         1 TEMP              0 ****  ****    0 ROOT
