@<TRIPOS>MOLECULE
molecule
   45    47     1     0     0
SMALL
bcc


@<TRIPOS>ATOM
      1 O01          0.0000     0.0000     0.0000 o          1 FSY      -0.846300
      2 C02          1.3430     0.0000     0.0000 c          1 FSY       0.891600
      3 O03          1.9470     0.0000     1.0470 o          1 FSY      -0.846300
      4 C04          2.0960     0.0020    -1.3050 c3         1 FSY      -0.126200
      5 C05          3.5780     0.0020    -1.0290 cc         1 FSY      -0.048400
      6 C06          4.3630     1.0800    -0.8770 cd         1 FSY      -0.082300
      7 C07          3.8930     2.5100    -0.9560 c3         1 FSY      -0.017900
      8 N08          5.6520     0.6880    -0.6390 na         1 FSY      -0.185100
      9 C09          5.7340    -0.6840    -0.6320 ca         1 FSY       0.456800
     10 C10          4.4360    -1.1740    -0.8700 ca         1 FSY      -0.191100
     11 C11          4.2180    -2.5530    -0.9110 ca         1 FSY      -0.029000
     12 C12          5.3020    -3.3870    -0.7110 ca         1 FSY      -0.306300
     13 C13          6.5520    -2.8360    -0.4780 ca         1 FSY       0.429200
     14 N14          6.7360    -1.5330    -0.4510 nb         1 FSY      -0.732000
     15 C15          6.7820     1.5970    -0.4250 c3         1 FSY       0.078600
     16 C16          6.8420     1.9870     1.0300 ca         1 FSY      -0.005300
     17 C17          5.9880     1.3950     1.9410 ca         1 FSY      -0.117000
     18 C18          6.0440     1.7520     3.2740 ca         1 FSY       0.004000
     19 C19          6.9560     2.7010     3.6970 ca         1 FSY      -0.313500
     20 C20          7.8120     3.2930     2.7870 ca         1 FSY       0.003000
     21 C21          7.7590     2.9300     1.4540 ca         1 FSY      -0.212300
     22 C22          8.6920     3.5750     0.4610 c3         1 FSY       0.673200
     23 S26          7.0230     3.1630     5.3970 sy         1 FSY       1.191300
     24 O27          6.5330     2.0220     6.0900 o          1 FSY      -0.621800
     25 O28          8.3570     3.6170     5.5850 o          1 FSY      -0.621800
     26 C29          5.8540     4.5420     5.5380 c3         1 FSY      -0.227300
     27 F23          9.4160     2.5840    -0.2100 f          1 FSY      -0.226633
     28 F24          7.9490     4.3170    -0.4640 f          1 FSY      -0.226633
     29 F25          9.5770     4.4230     1.1350 f          1 FSY      -0.226633
     30 H2           1.8340     0.8870    -1.8720 hc         1 FSY       0.040700
     31 H3           1.8340    -0.8820    -1.8740 hc         1 FSY       0.040700
     32 H4           2.9810     2.5590    -1.5380 hc         1 FSY       0.045367
     33 H5           3.7030     2.8830     0.0440 hc         1 FSY       0.045367
     34 H6           4.6560     3.1160    -1.4280 hc         1 FSY       0.045367
     35 H7           3.2300    -2.9560    -1.0950 ha         1 FSY       0.146000
     36 H8           5.1750    -4.4630    -0.7290 ha         1 FSY       0.124000
     37 H9           7.3990    -3.4930    -0.3220 h4         1 FSY       0.006100
     38 H10          7.7030     1.1010    -0.7050 h1         1 FSY       0.084700
     39 H11          6.6510     2.4850    -1.0320 h1         1 FSY       0.084700
     40 H12          5.2730     0.6510     1.6090 ha         1 FSY       0.197000
     41 H13          5.3740     1.2890     3.9880 ha         1 FSY       0.167000
     42 H14          8.5280     4.0350     3.1190 ha         1 FSY       0.158000
     43 H15          4.8600     4.2020     5.2750 h1         1 FSY       0.098033
     44 H16          6.1530     5.3390     4.8670 h1         1 FSY       0.098033
     45 H17          5.8520     4.9110     6.5570 h1         1 FSY       0.098033
@<TRIPOS>BOND
     1    25    23 2
     2    26    23 1
     3    24    23 2
     4    23    19 1
     5    19    20 ar
     6    19    18 ar
     7    20    21 ar
     8    18    17 ar
     9    28    22 1
    10    21    22 1
    11    21    16 ar
    12    27    22 1
    13    22    29 1
    14    17    16 ar
    15    16    15 1
    16     7     6 1
    17    15     8 1
    18     6     8 1
    19     6     5 2
    20     8     9 1
    21     3     2 1
    22     5     4 1
    23     5    10 1
    24     2     4 1
    25     2     1 1
    26     9    14 ar
    27     9    10 ar
    28    14    13 ar
    29    10    11 ar
    30    13    12 ar
    31    11    12 ar
    32     4    30 1
    33     4    31 1
    34     7    32 1
    35     7    33 1
    36     7    34 1
    37    11    35 1
    38    12    36 1
    39    13    37 1
    40    15    38 1
    41    15    39 1
    42    17    40 1
    43    18    41 1
    44    20    42 1
    45    26    43 1
    46    26    44 1
    47    26    45 1
@<TRIPOS>SUBSTRUCTURE
     1 FSY         1 TEMP              0 ****  ****    0 ROOT
