@<TRIPOS>MOLECULE
FSZ
   38    39     1     0     0
SMALL
bcc


@<TRIPOS>ATOM
      1 N3           0.0000     0.0000     0.0000 n7         1 FSZ      -0.585200
      2 C4           1.4680     0.0000     0.0000 c3         1 FSZ       0.148800
      3 C5           1.9800     0.0000     1.4420 c3         1 FSZ      -0.024400
      4 C6           1.4500    -1.2410     2.1660 c3         1 FSZ      -0.004400
      5 C8           1.9640    -0.1370     5.7440 ca         1 FSZ      -0.059400
      6 C10          1.9010    -1.2170     3.6040 ca         1 FSZ      -0.054300
      7 C13          2.7430    -1.1740     6.2420 ca         1 FSZ      -0.034000
      8 C1          -0.0800    -1.2430     2.1090 c3         1 FSZ      -0.024400
      9 C11          2.6840    -2.2430     4.1000 ca         1 FSZ      -0.015000
     10 C12          3.0990    -2.2240     5.4180 ca         1 FSZ      -0.178300
     11 C14          3.9430    -3.3500     5.9580 c3         1 FSZ       0.643200
     12 C18          1.2960     0.6950     7.8970 c2         1 FSZ       0.229100
     13 C2          -0.5310    -1.2060     0.6470 c3         1 FSZ       0.148800
     14 C9           1.5440    -0.1620     4.4200 ca         1 FSZ      -0.077000
     15 F15          3.6310    -4.5330     5.2810 f          1 FSZ      -0.201300
     16 F16          5.2980    -3.0490     5.7710 f          1 FSZ      -0.201300
     17 F17          3.6860    -3.5130     7.3240 f          1 FSZ      -0.201300
     18 N19          1.2370    -0.5260     8.3480 n2         1 FSZ      -0.596100
     19 N20          1.0530     1.7520     8.7430 nz         1 FSZ       0.122400
     20 H1          -0.3280     0.0540    -0.9440 hn         1 FSZ       0.263800
     21 H3           1.8380    -0.8910    -0.4930 h1         1 FSZ       0.014450
     22 H4           1.8430     0.8900    -0.4900 h1         1 FSZ       0.014450
     23 H5           1.5630     0.8700     1.9350 hc         1 FSZ       0.020950
     24 H6           3.0610     0.0460     1.4790 hc         1 FSZ       0.020950
     25 H7           1.8300    -2.1320     1.6790 hc         1 FSZ       0.044700
     26 H8           3.0700    -1.1590     7.2740 ha         1 FSZ       0.128000
     27 H9          -0.4330    -2.1680     2.5470 hc         1 FSZ       0.020950
     28 H10         -0.4800    -0.3900     2.6440 hc         1 FSZ       0.020950
     29 H11          2.9630    -3.0540     3.4380 ha         1 FSZ       0.135000
     30 H12         -1.6130    -1.1750     0.5990 h1         1 FSZ       0.014450
     31 H13         -0.1470    -2.0800     0.1350 h1         1 FSZ       0.014450
     32 H14          0.9390     0.6400     4.0140 ha         1 FSZ       0.125000
     33 H15          1.0210    -0.7860     9.2900 hn         1 FSZ       0.364400
     34 H16          0.2000     1.5650     9.2320 hn         1 FSZ       0.227800
     35 H17          1.7850     1.9240     9.4030 hn         1 FSZ       0.227800
     36 H18          1.3380     1.8000     6.1610 hn         1 FSZ       0.287800
     37 H203         0.9070     2.5300     8.1300 hn         1 FSZ       0.227800
     38 N7           1.6000     0.9280     6.5750 nu         1 FSZ      -0.209600
@<TRIPOS>BOND
     1     1     2 1   
     2     1    13 1   
     3     1    20 1   
     4     2     3 1   
     5     2    21 1   
     6     2    22 1   
     7     3     4 1   
     8     3    23 1   
     9     3    24 1   
    10     4     6 1   
    11     4     8 1   
    12     4    25 1   
    13     5     7 ar  
    14     5    14 ar  
    15     5    38 1   
    16     6     9 ar  
    17     6    14 ar  
    18     7    10 ar  
    19     7    26 1   
    20     8    13 1   
    21     8    27 1   
    22     8    28 1   
    23     9    10 ar  
    24     9    29 1   
    25    10    11 1   
    26    11    15 1   
    27    11    16 1   
    28    11    17 1   
    29    12    18 2   
    30    12    19 1   
    31    12    38 1   
    32    13    30 1   
    33    13    31 1   
    34    14    32 1   
    35    18    33 1   
    36    19    34 1   
    37    19    35 1   
    38    19    37 1   
    39    36    38 1   
@<TRIPOS>SUBSTRUCTURE
     1 FSZ         1 TEMP              0 ****  ****    0 ROOT
