@<TRIPOS>MOLECULE
molecule
   38    39     1     0     0
SMALL
bcc


@<TRIPOS>ATOM
      1 N3           0.0000     0.0000     0.0000 n7         1 FSZ      -0.805200
      2 C4           1.4680     0.0000     0.0000 c3         1 FSZ       0.156800
      3 C5           1.9800     0.0000     1.4420 c3         1 FSZ      -0.117400
      4 C6           1.4500    -1.2410     2.1660 c3         1 FSZ      -0.037400
      5 C8           1.9640    -0.1370     5.7440 ca         1 FSZ       0.101600
      6 C10          1.9010    -1.2170     3.6040 ca         1 FSZ      -0.038300
      7 C13          2.7430    -1.1740     6.2420 ca         1 FSZ      -0.150000
      8 C1          -0.0800    -1.2430     2.1090 c3         1 FSZ      -0.117400
      9 C11          2.6840    -2.2430     4.1000 ca         1 FSZ      -0.064000
     10 C12          3.0990    -2.2240     5.4180 ca         1 FSZ      -0.142300
     11 C14          3.9430    -3.3500     5.9580 c3         1 FSZ       0.676200
     12 C18          1.2960     0.6950     7.8970 c2         1 FSZ       0.680100
     13 C2          -0.5310    -1.2060     0.6470 c3         1 FSZ       0.156800
     14 C9           1.5440    -0.1620     4.4200 ca         1 FSZ      -0.096000
     15 F15          3.6310    -4.5330     5.2810 f          1 FSZ      -0.211967
     16 F16          5.2980    -3.0490     5.7710 f          1 FSZ      -0.211967
     17 F17          3.6860    -3.5130     7.3240 f          1 FSZ      -0.211967
     18 N19          1.2370    -0.5260     8.3480 n2         1 FSZ      -0.833100
     19 N20          1.0530     1.7520     8.7430 nz         1 FSZ      -0.737600
     20 H1          -0.3120     0.8340     0.4570 hn         1 FSZ       0.354800
     21 H3           1.8290    -0.8750    -0.5270 h1         1 FSZ       0.066200
     22 H4           1.7760     0.9020    -0.5140 h1         1 FSZ       0.066200
     23 H5           3.0620    -0.0450     1.4270 hc         1 FSZ       0.046700
     24 H6           1.6340     0.8880     1.9580 hc         1 FSZ       0.046700
     25 H7           1.8070    -2.1270     1.6540 hc         1 FSZ       0.078700
     26 H8           3.0710    -1.1590     7.2740 ha         1 FSZ       0.152000
     27 H9          -0.4410    -0.3500     2.6040 hc         1 FSZ       0.046700
     28 H10         -0.4450    -2.1400     2.5940 hc         1 FSZ       0.046700
     29 H11          2.9620    -3.0640     3.4500 ha         1 FSZ       0.173000
     30 H12         -1.6130    -1.1840     0.6160 h1         1 FSZ       0.066200
     31 H13         -0.2280    -2.1120     0.1360 h1         1 FSZ       0.066200
     32 H14          0.9470     0.6450     4.0120 ha         1 FSZ       0.154000
     33 H15          1.3690    -1.3830     7.8480 hn         1 FSZ       0.520400
     34 H16          1.6990     2.4780     8.5050 hn         1 FSZ       0.475800
     35 H17          1.0700     1.6040     9.7320 hn         1 FSZ       0.475800
     36 H18          1.8560     1.8590     6.3130 hn         1 FSZ       0.442800
     37 H203         0.1410     2.0800     8.4900 hn         1 FSZ       0.475800
     38 N7           1.6000     0.9280     6.5750 nu         1 FSZ      -0.754600
@<TRIPOS>BOND
     1     2     1 1
     2     2     3 1
     3     1    13 1
     4     3     4 1
     5    13     8 1
     6     4     8 1
     7     4     6 1
     8     6     9 ar
     9     6    14 ar
    10     9    10 ar
    11    15    11 1
    12    17    11 1
    13    14     5 ar
    14    10    11 1
    15    10     7 ar
    16    11    16 1
    17     5     7 ar
    18     5    38 1
    19    38    12 1
    20    18    12 2
    21    12    19 1
    22     1    20 1
    23     2    21 1
    24     2    22 1
    25     3    23 1
    26     3    24 1
    27     4    25 1
    28     7    26 1
    29     8    27 1
    30     8    28 1
    31     9    29 1
    32    13    30 1
    33    13    31 1
    34    14    32 1
    35    18    33 1
    36    19    34 1
    37    19    35 1
    38    38    36 1
    39    37    19 1
@<TRIPOS>SUBSTRUCTURE
     1 FSZ         1 TEMP              0 ****  ****    0 ROOT
