@<TRIPOS>MOLECULE
molecule
   26    27     1     0     0
SMALL
bcc


@<TRIPOS>ATOM
      1 C1           0.0000     0.0000     0.0000 ca         1 FT0       0.154100
      2 C2           1.3950     0.0000     0.0000 ca         1 FT0       0.067100
      3 C3           2.0860     0.0000     1.1950 ca         1 FT0      -0.098000
      4 C4           1.3820     0.0010     2.4070 ca         1 FT0      -0.224600
      5 C5          -0.0180     0.0010     2.3980 ca         1 FT0      -0.040000
      6 C6          -0.6980     0.0010     1.2020 ca         1 FT0      -0.215000
      7 O7          -0.6770     0.0060    -1.1760 os         1 FT0      -0.229200
      8 C8          -2.0340     0.0250    -1.1310 ca         1 FT0       0.088100
      9 C9          -2.7120     1.2360    -1.1110 ca         1 FT0      -0.134000
     10 C10         -4.0930     1.2520    -1.0650 ca         1 FT0      -0.120000
     11 C11         -4.8000     0.0650    -1.0380 ca         1 FT0      -0.125000
     12 C12         -4.1260    -1.1440    -1.0590 ca         1 FT0      -0.120000
     13 C13         -2.7460    -1.1660    -1.1100 ca         1 FT0      -0.134000
     14 C14          2.1110     0.0000     3.6820 c          1 FT0       0.585500
     15 O15          1.5000     0.0010     4.7290 o          1 FT0      -0.529100
     16 O16          2.0750    -0.0020    -1.1780 oh         1 FT0      -0.500100
     17 H3           3.1690    -0.0000     1.1960 ha         1 FT0       0.145000
     18 H5          -0.5650     0.0020     3.3330 ha         1 FT0       0.157000
     19 H6          -1.7820     0.0010     1.1970 ha         1 FT0       0.155000
     20 H9          -2.1590     2.1670    -1.1320 ha         1 FT0       0.146000
     21 H10         -4.6230     2.1970    -1.0490 ha         1 FT0       0.137000
     22 H11         -5.8820     0.0800    -1.0000 ha         1 FT0       0.135000
     23 H12         -4.6830    -2.0730    -1.0400 ha         1 FT0       0.137000
     24 H13         -2.2200    -2.1130    -1.1260 ha         1 FT0       0.146000
     25 H14          3.1940    -0.0350     3.6860 h4         1 FT0      -0.000800
     26 HO16         2.5230    -0.8250    -1.2810 ho         1 FT0       0.416000
@<TRIPOS>BOND
     1     1     2 ar
     2     1     6 ar
     3     1     7 1
     4     2     3 ar
     5     2    16 1
     6     3     4 ar
     7     4     5 ar
     8     4    14 1
     9     5     6 ar
    10     7     8 1
    11     8     9 ar
    12     8    13 ar
    13     9    10 ar
    14    10    11 ar
    15    11    12 ar
    16    12    13 ar
    17    14    15 2
    18     3    17 1
    19     5    18 1
    20     6    19 1
    21     9    20 1
    22    10    21 1
    23    11    22 1
    24    12    23 1
    25    13    24 1
    26    14    25 1
    27    16    26 1
@<TRIPOS>SUBSTRUCTURE
     1 FT0         1 TEMP              0 ****  ****    0 ROOT
