@<TRIPOS>MOLECULE
FT0
   26    27     1     0     0
SMALL
bcc


@<TRIPOS>ATOM
      1 C1         -0.1110   -0.4920    0.3450 ca        1 FT0      0.050100
      2 C2          1.2590   -0.2330    0.1260 ca        1 FT0      0.108100
      3 C3          2.0750    0.1440    1.2010 ca        1 FT0     -0.105000
      4 C4          1.5170    0.2670    2.4770 ca        1 FT0     -0.179600
      5 C5          0.1550    0.0110    2.6850 ca        1 FT0     -0.087000
      6 C6         -0.6620   -0.3680    1.6240 ca        1 FT0     -0.144000
      7 O7         -0.8190   -0.9630   -0.7550 os        1 FT0     -0.263200
      8 C8         -2.1200   -0.4870   -0.9110 ca        1 FT0      0.099100
      9 C9         -2.5100    0.8070   -0.5460 ca        1 FT0     -0.155000
     10 C10        -3.8110    1.2210   -0.8280 ca        1 FT0     -0.106000
     11 C11        -4.7040    0.3590   -1.4650 ca        1 FT0     -0.145000
     12 C12        -4.3010   -0.9290   -1.8230 ca        1 FT0     -0.106000
     13 C13        -3.0090   -1.3680   -1.5460 ca        1 FT0     -0.155000
     14 C14         2.3780    0.6670    3.6040 c         1 FT0      0.576500
     15 O15         1.9660    0.8210    4.7550 o         1 FT0     -0.525100
     16 O16         1.8560   -0.3520   -1.1050 oh        1 FT0     -0.491100
     17 H3          3.1420    0.3400    1.0210 ha        1 FT0      0.157000
     18 H5         -0.2610    0.1120    3.7000 ha        1 FT0      0.160000
     19 H6         -1.7330   -0.5690    1.7770 ha        1 FT0      0.156000
     20 H9         -1.8000    1.4790   -0.0430 ha        1 FT0      0.150500
     21 H10        -4.1300    2.2360   -0.5480 ha        1 FT0      0.138000
     22 H11        -5.7280    0.6940   -1.6850 ha        1 FT0      0.137000
     23 H12        -5.0080   -1.6070   -2.3240 ha        1 FT0      0.138000
     24 H13        -2.6760   -2.3780   -1.8220 ha        1 FT0      0.150500
     25 H14         3.4500    0.8260    3.3450 h4        1 FT0      0.002200
     26 HO16        1.1670   -0.5790   -1.7510 ho        1 FT0      0.439000
@<TRIPOS>BOND
     1    1    2 ar  
     2    1    6 ar  
     3    1    7 1   
     4    2    3 ar  
     5    2   16 1   
     6    3    4 ar  
     7    3   17 1   
     8    4    5 ar  
     9    4   14 1   
    10    5    6 ar  
    11    5   18 1   
    12    6   19 1   
    13    7    8 1   
    14    8    9 ar  
    15    8   13 ar  
    16    9   10 ar  
    17    9   20 1   
    18   10   11 ar  
    19   10   21 1   
    20   11   12 ar  
    21   11   22 1   
    22   12   13 ar  
    23   12   23 1   
    24   13   24 1   
    25   14   15 2   
    26   14   25 1   
    27   16   26 1   
@<TRIPOS>SUBSTRUCTURE
     1 FT0         1 TEMP              0 ****  ****    0 ROOT
