@<TRIPOS>MOLECULE
molecule
   26    27     1     0     0
SMALL
bcc


@<TRIPOS>ATOM
      1 C1           0.0000     0.0000     0.0000 ca         1 FT1       0.107100
      2 C2           1.3950     0.0000     0.0000 ca         1 FT1       0.087100
      3 C3           2.0860     0.0000     1.1950 ca         1 FT1      -0.130000
      4 C4           1.3820    -0.0000     2.4060 ca         1 FT1      -0.181600
      5 C5          -0.0180    -0.0010     2.3980 ca         1 FT1      -0.073000
      6 C6          -0.6990     0.0000     1.2010 ca         1 FT1      -0.134000
      7 O7          -0.6770     0.0050    -1.1760 os         1 FT1      -0.228200
      8 C8          -0.8370    -1.1770    -1.8260 ca         1 FT1       0.152100
      9 C9          -1.4130    -1.2040    -3.0890 ca         1 FT1       0.009400
     10 C10         -1.5740    -2.4090    -3.7490 ca         1 FT1      -0.085000
     11 C11         -1.1600    -3.5860    -3.1510 ca         1 FT1       0.001400
     12 C12         -0.5860    -3.5610    -1.8910 ca         1 FT1      -0.084000
     13 C13         -0.4180    -2.3590    -1.2320 ca         1 FT1      -0.185000
     14 C14          2.1110    -0.0010     3.6810 c          1 FT1       0.579500
     15 O15          1.5000    -0.0020     4.7280 o          1 FT1      -0.516100
     16 Cl1         -1.3630    -5.0980    -3.9800 cl         1 FT1      -0.100400
     17 Cl9         -1.9320     0.2720    -3.8390 cl         1 FT1      -0.081400
     18 O18          2.0740    -0.0000    -1.1780 oh         1 FT1      -0.503100
     19 H3           3.1690     0.0000     1.1960 ha         1 FT1       0.147000
     20 H5          -0.5660    -0.0010     3.3330 ha         1 FT1       0.163000
     21 H6          -1.7820     0.0000     1.1960 ha         1 FT1       0.158000
     22 H10         -2.0230    -2.4310    -4.7340 ha         1 FT1       0.162000
     23 H12         -0.2610    -4.4840    -1.4260 ha         1 FT1       0.150000
     24 H13          0.0310    -2.3400    -0.2460 ha         1 FT1       0.154000
     25 H14          3.1940    -0.0010     3.6860 h4         1 FT1       0.005200
     26 HO18         2.5690     0.7990    -1.2560 ho         1 FT1       0.428000
@<TRIPOS>BOND
     1     1     2 ar
     2     1     6 ar
     3     1     7 1
     4     2     3 ar
     5     2    18 1
     6     3     4 ar
     7     4     5 ar
     8     4    14 1
     9     5     6 ar
    10     7     8 1
    11     8     9 ar
    12     8    13 ar
    13     9    10 ar
    14     9    17 1
    15    10    11 ar
    16    11    12 ar
    17    11    16 1
    18    12    13 ar
    19    14    15 2
    20     3    19 1
    21     5    20 1
    22     6    21 1
    23    10    22 1
    24    12    23 1
    25    13    24 1
    26    14    25 1
    27    18    26 1
@<TRIPOS>SUBSTRUCTURE
     1 FT1         1 TEMP              0 ****  ****    0 ROOT
