@<TRIPOS>MOLECULE
FT1
   26    27     1     0     0
SMALL
bcc


@<TRIPOS>ATOM
      1 C1         -0.0810   -0.1240    0.1070 ca        1 FT1      0.082100
      2 C2          1.3210    0.0360    0.0320 ca        1 FT1      0.110100
      3 C3          2.0670    0.1700    1.2090 ca        1 FT1     -0.170000
      4 C4          1.4200    0.1450    2.4490 ca        1 FT1     -0.157600
      5 C5          0.0320   -0.0140    2.5170 ca        1 FT1     -0.098000
      6 C6         -0.7200   -0.1500    1.3510 ca        1 FT1     -0.112000
      7 O7         -0.8680   -0.1000   -1.0410 os        1 FT1     -0.224200
      8 C8         -0.9130   -1.2780   -1.7800 ca        1 FT1      0.132100
      9 C9         -1.3430   -1.1730   -3.1170 ca        1 FT1      0.007400
     10 C10        -1.4700   -2.3340   -3.8860 ca        1 FT1     -0.099000
     11 C11        -1.1650   -3.5770   -3.3280 ca        1 FT1     -0.003600
     12 C12        -0.7340   -3.6790   -2.0010 ca        1 FT1     -0.095000
     13 C13        -0.6100   -2.5300   -1.2280 ca        1 FT1     -0.169000
     14 C14         2.2160    0.2900    3.6820 c         1 FT1      0.573500
     15 O15         1.7290    0.2490    4.8130 o         1 FT1     -0.516100
     16 CL1        -1.3190   -4.9800   -4.2740 cl        1 FT1     -0.085400
     17 CL9        -1.7210    0.3190   -3.8290 cl        1 FT1     -0.059400
     18 O18         1.8880    0.0470   -1.2170 oh        1 FT1     -0.475100
     19 H3          3.1590    0.2990    1.1530 ha        1 FT1      0.142000
     20 H5         -0.4610   -0.0280    3.5030 ha        1 FT1      0.163000
     21 H6         -1.8140   -0.2650    1.3940 ha        1 FT1      0.161000
     22 H10        -1.8090   -2.2630   -4.9330 ha        1 FT1      0.164000
     23 H12        -0.4950   -4.6620   -1.5660 ha        1 FT1      0.153000
     24 H13        -0.2720   -2.5990   -0.1830 ha        1 FT1      0.152000
     25 H14         3.3080    0.4420    3.5250 h4        1 FT1      0.001200
     26 HO18        2.8420    0.1880   -1.1120 ho        1 FT1      0.424000
@<TRIPOS>BOND
     1    1    2 ar  
     2    1    6 ar  
     3    1    7 1   
     4    2    3 ar  
     5    2   18 1   
     6    3    4 ar  
     7    3   19 1   
     8    4    5 ar  
     9    4   14 1   
    10    5    6 ar  
    11    5   20 1   
    12    6   21 1   
    13    7    8 1   
    14    8    9 ar  
    15    8   13 ar  
    16    9   10 ar  
    17    9   17 1   
    18   10   11 ar  
    19   10   22 1   
    20   11   12 ar  
    21   11   16 1   
    22   12   13 ar  
    23   12   23 1   
    24   13   24 1   
    25   14   15 2   
    26   14   25 1   
    27   18   26 1   
@<TRIPOS>SUBSTRUCTURE
     1 FT1         1 TEMP              0 ****  ****    0 ROOT
