@<TRIPOS>MOLECULE
molecule
   27    28     1     0     0
SMALL
bcc


@<TRIPOS>ATOM
      1 C1           0.0000     0.0000     0.0000 ca         1 FT2       0.084100
      2 C2           1.3920     0.0000     0.0000 ca         1 FT2       0.103100
      3 C3           2.0810     0.0000     1.2020 ca         1 FT2      -0.151000
      4 C4           1.3870    -0.0010     2.3970 ca         1 FT2      -0.086300
      5 C5           0.0040    -0.0010     2.3970 ca         1 FT2      -0.116000
      6 C6          -0.6900    -0.0010     1.2020 ca         1 FT2      -0.117000
      7 O7          -0.6810     0.0050    -1.1770 os         1 FT2      -0.225200
      8 C8          -0.8410    -1.1770    -1.8270 ca         1 FT2       0.153100
      9 C9          -1.4210    -1.2040    -3.0880 ca         1 FT2       0.008400
     10 C10         -1.5830    -2.4090    -3.7480 ca         1 FT2      -0.085000
     11 C11         -1.1690    -3.5860    -3.1510 ca         1 FT2       0.000400
     12 C12         -0.5910    -3.5610    -1.8940 ca         1 FT2      -0.085000
     13 C13         -0.4210    -2.3580    -1.2340 ca         1 FT2      -0.186000
     14 C14          2.1380     0.0000     3.7040 c3         1 FT2       0.095300
     15 Cl15         2.4370     1.7000     4.2250 cl         1 FT2      -0.190400
     16 Cl16        -1.3750    -5.0980    -3.9790 cl         1 FT2      -0.101400
     17 Cl17        -1.9410     0.2730    -3.8370 cl         1 FT2      -0.082400
     18 O18          2.0740     0.0000    -1.1760 oh         1 FT2      -0.504100
     19 H3           3.1650     0.0000     1.2050 ha         1 FT2       0.149000
     20 H5          -0.5370    -0.0020     3.3360 ha         1 FT2       0.144000
     21 H6          -1.7730    -0.0010     1.2040 ha         1 FT2       0.155000
     22 H10         -2.0350    -2.4310    -4.7320 ha         1 FT2       0.161000
     23 H12         -0.2650    -4.4840    -1.4290 ha         1 FT2       0.149000
     24 H13          0.0320    -2.3400    -0.2500 ha         1 FT2       0.154000
     25 H14          1.5510    -0.5100     4.4580 h1         1 FT2       0.072700
     26 H14A         3.0850    -0.5100     3.5770 h1         1 FT2       0.072700
     27 HO18         2.5680     0.8000    -1.2530 ho         1 FT2       0.430000
@<TRIPOS>BOND
     1     1     2 ar
     2     1     6 ar
     3     1     7 1
     4     2     3 ar
     5     2    18 1
     6     3     4 ar
     7     4     5 ar
     8     4    14 1
     9     5     6 ar
    10     7     8 1
    11     8     9 ar
    12     8    13 ar
    13     9    10 ar
    14     9    17 1
    15    10    11 ar
    16    11    12 ar
    17    11    16 1
    18    12    13 ar
    19    14    15 1
    20     3    19 1
    21     5    20 1
    22     6    21 1
    23    10    22 1
    24    12    23 1
    25    13    24 1
    26    14    25 1
    27    14    26 1
    28    18    27 1
@<TRIPOS>SUBSTRUCTURE
     1 FT2         1 TEMP              0 ****  ****    0 ROOT
