@<TRIPOS>MOLECULE
FT2
   27    28     1     0     0
SMALL
bcc


@<TRIPOS>ATOM
      1 C1          0.0220   -0.1100    0.0410 ca        1 FT2      0.056100
      2 C2          1.4230    0.0640    0.0330 ca        1 FT2      0.128100
      3 C3          2.1150    0.1770    1.2470 ca        1 FT2     -0.193000
      4 C4          1.4150    0.1190    2.4560 ca        1 FT2     -0.058300
      5 C5          0.0260   -0.0520    2.4550 ca        1 FT2     -0.141000
      6 C6         -0.6700   -0.1690    1.2550 ca        1 FT2     -0.096000
      7 O7         -0.7020   -0.0610   -1.1480 os        1 FT2     -0.220200
      8 C8         -0.8520   -1.2630   -1.8290 ca        1 FT2      0.136100
      9 C9         -1.4380   -1.1910   -3.1090 ca        1 FT2      0.000400
     10 C10        -1.6450   -2.3690   -3.8330 ca        1 FT2     -0.096000
     11 C11        -1.2700   -3.5990   -3.2880 ca        1 FT2     -0.007600
     12 C12        -0.6870   -3.6690   -2.0190 ca        1 FT2     -0.092000
     13 C13        -0.4800   -2.5020   -1.2910 ca        1 FT2     -0.175000
     14 C14         2.1520    0.2250    3.7400 c3        1 FT2      0.076300
     15 Cl15        2.4170    1.9020    4.1960 cl        1 FT2     -0.179400
     16 Cl16       -1.5260   -5.0230   -4.1790 cl        1 FT2     -0.088400
     17 Cl17       -1.9070    0.2830   -3.8060 cl        1 FT2     -0.060400
     18 O18         2.0500    0.1040   -1.1860 oh        1 FT2     -0.474100
     19 H3          3.2050    0.3230    1.2440 ha        1 FT2      0.144000
     20 H5         -0.5230   -0.0890    3.4080 ha        1 FT2      0.145000
     21 H6         -1.7640   -0.2930    1.2470 ha        1 FT2      0.157000
     22 H10        -2.1030   -2.3220   -4.8350 ha        1 FT2      0.163000
     23 H12        -0.3920   -4.6410   -1.5940 ha        1 FT2      0.151000
     24 H13        -0.0180   -2.5490   -0.2930 ha        1 FT2      0.152000
     25 H14         1.5790   -0.2420    4.5780 h1        1 FT2      0.073700
     26 H14A        3.1640   -0.2440    3.6670 h1        1 FT2      0.073700
     27 HO18        2.9870    0.2990   -1.0340 ho        1 FT2      0.424000
@<TRIPOS>BOND
     1    1    2 ar  
     2    1    6 ar  
     3    1    7 1   
     4    2    3 ar  
     5    2   18 1   
     6    3    4 ar  
     7    3   19 1   
     8    4    5 ar  
     9    4   14 1   
    10    5    6 ar  
    11    5   20 1   
    12    6   21 1   
    13    7    8 1   
    14    8    9 ar  
    15    8   13 ar  
    16    9   10 ar  
    17    9   17 1   
    18   10   11 ar  
    19   10   22 1   
    20   11   12 ar  
    21   11   16 1   
    22   12   13 ar  
    23   12   23 1   
    24   13   24 1   
    25   14   15 1   
    26   14   25 1   
    27   14   26 1   
    28   18   27 1   
@<TRIPOS>SUBSTRUCTURE
     1 FT2         1 TEMP              0 ****  ****    0 ROOT
