@<TRIPOS>MOLECULE
molecule
   28    29     1     0     0
SMALL
bcc


@<TRIPOS>ATOM
      1 C1           0.0000     0.0000     0.0000 ca         1 FT3       0.080100
      2 C2           1.3910     0.0000     0.0000 ca         1 FT3       0.099100
      3 C3           2.0810     0.0000     1.2010 ca         1 FT3      -0.148000
      4 C4           1.3860     0.0010     2.3970 ca         1 FT3      -0.065300
      5 C5           0.0040    -0.0000     2.3970 ca         1 FT3      -0.114000
      6 C6          -0.6910    -0.0000     1.2010 ca         1 FT3      -0.119000
      7 O7          -0.6820     0.0060    -1.1770 os         1 FT3      -0.226200
      8 C8          -0.8420    -1.1770    -1.8270 ca         1 FT3       0.154100
      9 C9          -1.4220    -1.2040    -3.0880 ca         1 FT3       0.007400
     10 C10         -1.5850    -2.4080    -3.7470 ca         1 FT3      -0.085000
     11 C11         -1.1710    -3.5860    -3.1500 ca         1 FT3      -0.000600
     12 C12         -0.5930    -3.5600    -1.8920 ca         1 FT3      -0.085000
     13 C13         -0.4220    -2.3580    -1.2330 ca         1 FT3      -0.186000
     14 C14          2.1370     0.0010     3.7030 c3         1 FT3       0.186700
     15 O15          2.3750     1.3470     4.1160 oh         1 FT3      -0.602800
     16 Cl16        -1.3770    -5.0980    -3.9780 cl         1 FT3      -0.103400
     17 Cl17        -1.9430     0.2730    -3.8370 cl         1 FT3      -0.083400
     18 O18          2.0740    -0.0000    -1.1770 oh         1 FT3      -0.507100
     19 H3           3.1640     0.0000     1.2040 ha         1 FT3       0.147000
     20 H5          -0.5370     0.0000     3.3360 ha         1 FT3       0.143000
     21 H6          -1.7740    -0.0000     1.2040 ha         1 FT3       0.153000
     22 H10         -2.0370    -2.4300    -4.7310 ha         1 FT3       0.161000
     23 H12         -0.2670    -4.4830    -1.4280 ha         1 FT3       0.148000
     24 H13          0.0300    -2.3390    -0.2490 ha         1 FT3       0.154000
     25 H14          3.0840    -0.5100     3.5750 h1         1 FT3       0.029200
     26 H14A         1.5510    -0.5100     4.4570 h1         1 FT3       0.029200
     27 HO15         2.8450     1.3470     4.9330 ho         1 FT3       0.405000
     28 HO18         2.5670     0.7990    -1.2550 ho         1 FT3       0.429000
@<TRIPOS>BOND
     1     1     2 ar
     2     1     6 ar
     3     1     7 1
     4     2     3 ar
     5     2    18 1
     6     3     4 ar
     7     4     5 ar
     8     4    14 1
     9     5     6 ar
    10     7     8 1
    11     8     9 ar
    12     8    13 ar
    13     9    10 ar
    14     9    17 1
    15    10    11 ar
    16    11    12 ar
    17    11    16 1
    18    12    13 ar
    19    14    15 1
    20     3    19 1
    21     5    20 1
    22     6    21 1
    23    10    22 1
    24    12    23 1
    25    13    24 1
    26    14    25 1
    27    14    26 1
    28    15    27 1
    29    18    28 1
@<TRIPOS>SUBSTRUCTURE
     1 FT3         1 TEMP              0 ****  ****    0 ROOT
