@<TRIPOS>MOLECULE
FT3
   28    29     1     0     0
SMALL
bcc


@<TRIPOS>ATOM
      1 C1         -0.0490   -0.0920    0.0570 ca        1 FT3      0.043100
      2 C2          1.3270    0.2140    0.0820 ca        1 FT3      0.127100
      3 C3          1.9880    0.3490    1.3130 ca        1 FT3     -0.184000
      4 C4          1.2820    0.1750    2.5020 ca        1 FT3     -0.044300
      5 C5         -0.0860   -0.1340    2.4710 ca        1 FT3     -0.163000
      6 C6         -0.7490   -0.2680    1.2570 ca        1 FT3     -0.094000
      7 O7         -0.7550   -0.0650   -1.1430 os        1 FT3     -0.219200
      8 C8         -0.8440   -1.2660   -1.8350 ca        1 FT3      0.138100
      9 C9         -1.5670   -1.2410   -3.0460 ca        1 FT3     -0.002600
     10 C10        -1.6990   -2.4180   -3.7880 ca        1 FT3     -0.096000
     11 C11        -1.1180   -3.6020   -3.3280 ca        1 FT3     -0.010600
     12 C12        -0.4010   -3.6270   -2.1280 ca        1 FT3     -0.092000
     13 C13        -0.2650   -2.4600   -1.3840 ca        1 FT3     -0.175000
     14 C14         1.9460    0.3200    3.8320 c3        1 FT3      0.172700
     15 O15         3.3420    0.5080    3.6480 oh        1 FT3     -0.600800
     16 CL16       -1.2880   -5.0270   -4.2400 cl        1 FT3     -0.090400
     17 CL17       -2.2870    0.1760   -3.6380 cl        1 FT3     -0.063400
     18 O18         1.9680    0.3630   -1.1220 oh        1 FT3     -0.477100
     19 H3          3.0620    0.5920    1.3420 ha        1 FT3      0.162000
     20 H5         -0.6370   -0.2680    3.4130 ha        1 FT3      0.139000
     21 H6         -1.8250   -0.4990    1.2230 ha        1 FT3      0.154000
     22 H10        -2.2610   -2.4070   -4.7360 ha        1 FT3      0.162000
     23 H12         0.0570   -4.5620   -1.7710 ha        1 FT3      0.151000
     24 H13         0.3040   -2.4700   -0.4420 ha        1 FT3      0.154000
     25 H14         1.5120    1.2070    4.3730 h1        1 FT3      0.038200
     26 H14A        1.7680   -0.6050    4.4480 h1        1 FT3      0.038200
     27 HO15        3.7180    0.6140    4.5290 ho        1 FT3      0.407000
     28 HO18        2.8880    0.6100   -0.9410 ho        1 FT3      0.424000
@<TRIPOS>BOND
     1    1    2 ar  
     2    1    6 ar  
     3    1    7 1   
     4    2    3 ar  
     5    2   18 1   
     6    3    4 ar  
     7    3   19 1   
     8    4    5 ar  
     9    4   14 1   
    10    5    6 ar  
    11    5   20 1   
    12    6   21 1   
    13    7    8 1   
    14    8    9 ar  
    15    8   13 ar  
    16    9   10 ar  
    17    9   17 1   
    18   10   11 ar  
    19   10   22 1   
    20   11   12 ar  
    21   11   16 1   
    22   12   13 ar  
    23   12   23 1   
    24   13   24 1   
    25   14   15 1   
    26   14   25 1   
    27   14   26 1   
    28   15   27 1   
    29   18   28 1   
@<TRIPOS>SUBSTRUCTURE
     1 FT3         1 TEMP              0 ****  ****    0 ROOT
