@<TRIPOS>MOLECULE
molecule
   49    52     1     0     0
SMALL
bcc


@<TRIPOS>ATOM
      1 C1           0.0000     0.0000     0.0000 c3         1 FT4       0.221100
      2 N2           1.4650     0.0000     0.0000 n3         1 FT4      -0.813500
      3 C3           2.1980     0.0000     1.2680 c3         1 FT4       0.234500
      4 C5           1.8280    -1.2500     2.0720 c3         1 FT4      -0.080400
      5 C6           2.7710    -1.3800     3.2740 c3         1 FT4      -0.013200
      6 C7           2.8060    -0.0580     4.0040 cc         1 FT4      -0.021300
      7 C8           2.3830     1.1070     3.4680 cd         1 FT4      -0.204400
      8 C9           1.8240     1.2490     2.0760 c3         1 FT4       0.000800
      9 C10          2.5770     2.1320     4.4720 ca         1 FT4      -0.094800
     10 C11          2.3240     3.5080     4.4830 ca         1 FT4      -0.097000
     11 C12          2.6400     4.1860     5.6350 ca         1 FT4      -0.174000
     12 C13          3.1860     3.5510     6.7380 ca         1 FT4      -0.138000
     13 C14          3.4460     2.1920     6.7530 ca         1 FT4      -0.116000
     14 C15          3.1340     1.4760     5.6000 ca         1 FT4      -0.015200
     15 N16          3.2570     0.1550     5.2810 na         1 FT4      -0.000400
     16 C17          3.7920    -0.8800     6.1690 c3         1 FT4      -0.079700
     17 C18          5.2820    -0.9920     5.9710 c          1 FT4       0.871600
     18 O19          5.9890    -1.8820     6.6840 o          1 FT4      -0.825300
     19 O20          5.8400    -0.2810     5.1690 o          1 FT4      -0.825300
     20 S21          2.2920    -0.0000    -1.4340 sy         1 FT4       1.425200
     21 O22          3.5760    -0.5430    -1.1570 o          1 FT4      -0.639800
     22 O23          1.4110    -0.5440    -2.4070 o          1 FT4      -0.639800
     23 C24          2.5530     1.6830    -1.8860 ca         1 FT4      -0.328500
     24 C25          3.6920     2.3440    -1.4650 ca         1 FT4      -0.001500
     25 C26          3.8980     3.6630    -1.8180 ca         1 FT4      -0.193000
     26 C27          2.9610     4.3250    -2.5960 ca         1 FT4       0.176900
     27 C29          1.8210     3.6630    -3.0170 ca         1 FT4      -0.193000
     28 C30          1.6200     2.3420    -2.6670 ca         1 FT4      -0.001500
     29 F28          3.1620     5.6160    -2.9410 f          1 FT4      -0.140900
     30 H1          -0.3610    -0.6020    -0.8250 h1         1 FT4       0.042367
     31 H2          -0.3610    -0.4130     0.9340 h1         1 FT4       0.042367
     32 H3          -0.3610     1.0160    -0.1090 h1         1 FT4       0.042367
     33 H4           3.2640     0.0020     1.0750 h1         1 FT4       0.095700
     34 H5           0.8070    -1.1640     2.4230 hc         1 FT4       0.042200
     35 H6           1.9260    -2.1260     1.4420 hc         1 FT4       0.042200
     36 H7           3.7660    -1.6310     2.9290 hc         1 FT4       0.067700
     37 H8           2.4050    -2.1530     3.9400 hc         1 FT4       0.067700
     38 H9           0.7450     1.3400     2.1260 hc         1 FT4       0.038200
     39 H10          2.2470     2.1270     1.6030 hc         1 FT4       0.038200
     40 H11          1.8980     4.0130     3.6260 ha         1 FT4       0.116000
     41 H12          2.4590     5.2540     5.6810 ha         1 FT4       0.103000
     42 H13          3.4150     4.1380     7.6190 ha         1 FT4       0.109000
     43 H14          3.8730     1.7070     7.6230 ha         1 FT4       0.139000
     44 H15          3.5830    -0.6150     7.1980 h1         1 FT4       0.051700
     45 H16          3.3250    -1.8300     5.9380 h1         1 FT4       0.051700
     46 H18          4.4380     1.8180    -0.8810 ha         1 FT4       0.160000
     47 H19          4.7980     4.1750    -1.5020 ha         1 FT4       0.148000
     48 H20          1.0900     4.1780    -3.6290 ha         1 FT4       0.148000
     49 H21          0.7490     1.8120    -3.0320 ha         1 FT4       0.160000
@<TRIPOS>BOND
     1    21    20 2
     2    22    20 2
     3    28    27 ar
     4    28    23 ar
     5    27    26 ar
     6    20    23 1
     7    20     2 1
     8    23    24 ar
     9    26    29 1
    10    26    25 ar
    11    24    25 ar
    12     2     1 1
    13     2     3 1
    14     3     4 1
    15     3     8 1
    16     4     5 1
    17     8     7 1
    18     5     6 1
    19     7     6 2
    20     7     9 1
    21     6    15 1
    22     9    10 ar
    23     9    14 ar
    24    15    16 1
    25    15    14 1
    26    19    17 1
    27    10    11 ar
    28    17    16 1
    29    17    18 1
    30    14    13 ar
    31    11    12 ar
    32    13    12 ar
    33     1    30 1
    34     1    31 1
    35     1    32 1
    36     3    33 1
    37     4    34 1
    38     4    35 1
    39     5    36 1
    40     5    37 1
    41     8    38 1
    42     8    39 1
    43    10    40 1
    44    11    41 1
    45    12    42 1
    46    13    43 1
    47    16    44 1
    48    16    45 1
    49    24    46 1
    50    25    47 1
    51    27    48 1
    52    28    49 1
@<TRIPOS>SUBSTRUCTURE
     1 FT4         1 TEMP              0 ****  ****    0 ROOT
