@<TRIPOS>MOLECULE
FT8
   50    52     1     0     0
SMALL
bcc


@<TRIPOS>ATOM
      1 C1           0.0000     0.0000     0.0000 c3         1 FT8       0.160800
      2 C10         -0.3520     2.7860     2.1840 c          1 FT8       0.987600
      3 C11         -4.7910    -0.2860     2.3070 c          1 FT8       0.588100
      4 C12         -6.0190     0.1230     3.0790 c3         1 FT8       0.023400
      5 C13         -5.9050    -0.3770     4.5200 c3         1 FT8       0.062900
      6 C14         -7.0720     0.1370     5.3230 ca         1 FT8      -0.095300
      7 C15         -8.2360    -0.6060     5.4030 ca         1 FT8      -0.085000
      8 C16         -9.3070    -0.1340     6.1400 ca         1 FT8      -0.111500
      9 C17         -9.2140     1.0780     6.7970 ca         1 FT8      -0.112000
     10 C18         -8.0490     1.8190     6.7180 ca         1 FT8      -0.111500
     11 C19         -6.9770     1.3460     5.9860 ca         1 FT8      -0.085000
     12 C2          -1.9080     0.5160     1.3770 c          1 FT8       0.577500
     13 C3          -3.0990     0.1270     0.6040 c3         1 FT8      -0.017300
     14 C4          -3.1700     0.7370    -0.7650 c3         1 FT8      -0.063400
     15 C5          -2.2570     0.0890    -1.7510 c3         1 FT8       0.089700
     16 C6           1.5240     0.0000     0.0000 c3         1 FT8      -0.009400
     17 C7           2.0550     0.0000     1.4340 c3         1 FT8      -0.052400
     18 C8           1.6170     1.3360     2.0490 c3         1 FT8      -0.004400
     19 C9           0.1110     1.3520     2.1890 c3         1 FT8      -0.115300
     20 N1          -0.6040     0.6370     1.1390 n          1 FT8      -0.023800
     21 N2          -4.2920     0.5250     1.3540 ns         1 FT8      -0.125900
     22 O1           0.0860     3.6360     3.1260 o          1 FT8      -0.889800
     23 O2          -1.1160     3.1700     1.3320 o          1 FT8      -0.889800
     24 O3          -2.1870     0.7990     2.5230 o          1 FT8      -0.688500
     25 O4          -4.2520    -1.3470     2.5440 o          1 FT8      -0.642100
     26 S1          -0.5700     0.6560    -1.5840 ss         1 FT8      -0.431200
     27 S2          -7.4900    -0.6000     2.3030 sh         1 FT8      -0.403900
     28 H1          -0.3080    -1.0380     0.0330 h2         1 FT8       0.018700
     29 H2          -6.1030     1.2040     3.0770 h1         1 FT8       0.050700
     30 H3          -4.9810    -0.0170     4.9560 hc         1 FT8       0.049200
     31 H4          -5.9100    -1.4600     4.5280 hc         1 FT8       0.049200
     32 H5          -8.3090    -1.5560     4.8870 ha         1 FT8       0.117500
     33 H6         -10.2190    -0.7150     6.2020 ha         1 FT8       0.097500
     34 H7         -10.0540     1.4480     7.3730 ha         1 FT8       0.094000
     35 H8          -7.9760     2.7680     7.2360 ha         1 FT8       0.097500
     36 H9          -6.0650     1.9270     5.9250 ha         1 FT8       0.117500
     37 H10         -3.0980    -0.9510     0.4970 h1         1 FT8       0.051700
     38 H11         -2.9090     1.7860    -0.6910 hc         1 FT8       0.045700
     39 H12         -4.1870     0.6520    -1.1290 hc         1 FT8       0.045700
     40 H13         -2.2820    -0.9830    -1.5980 h1         1 FT8       0.037700
     41 H14         -2.6050     0.3150    -2.7510 h1         1 FT8       0.037700
     42 H15          1.8800     0.8850    -0.5130 hc         1 FT8       0.025200
     43 H16          1.8800    -0.8850    -0.5130 hc         1 FT8       0.025200
     44 H17          1.6240    -0.8240     1.9900 hc         1 FT8       0.011200
     45 H18          3.1360    -0.0700     1.4300 hc         1 FT8       0.011200
     46 H19          2.0120     1.3460     3.0580 hc         1 FT8       0.038700
     47 H20          1.8580     2.0970     1.3170 hc         1 FT8       0.038700
     48 H21         -0.1470     0.9050     3.1420 h1         1 FT8       0.061700
     49 H22         -4.7550     1.3860     1.1370 hn         1 FT8       0.171500
     50 H24         -7.9580     0.2320     1.3800 hs         1 FT8       0.176800
@<TRIPOS>BOND
     1     1    16 1   
     2     1    20 1   
     3     1    26 1   
     4     1    28 1   
     5     2    19 1   
     6     2    22 1   
     7     2    23 1   
     8     3     4 1   
     9     3    21 1   
    10     3    25 2   
    11     4     5 1   
    12     4    27 1   
    13     4    29 1   
    14     5     6 1   
    15     5    30 1   
    16     5    31 1   
    17     6     7 ar  
    18     6    11 ar  
    19     7     8 ar  
    20     7    32 1   
    21     8     9 ar  
    22     8    33 1   
    23     9    10 ar  
    24     9    34 1   
    25    10    11 ar  
    26    10    35 1   
    27    11    36 1   
    28    12    13 1   
    29    12    20 1   
    30    12    24 2   
    31    13    14 1   
    32    13    21 1   
    33    13    37 1   
    34    14    15 1   
    35    14    38 1   
    36    14    39 1   
    37    15    26 1   
    38    15    40 1   
    39    15    41 1   
    40    16    17 1   
    41    16    42 1   
    42    16    43 1   
    43    17    18 1   
    44    17    44 1   
    45    17    45 1   
    46    18    19 1   
    47    18    46 1   
    48    18    47 1   
    49    19    20 1   
    50    19    48 1   
    51    21    49 1   
    52    27    50 1   
@<TRIPOS>SUBSTRUCTURE
     1 FT8         1 TEMP              0 ****  ****    0 ROOT
