@<TRIPOS>MOLECULE
molecule
   36    38     1     0     0
SMALL
bcc


@<TRIPOS>ATOM
      1 N8           0.0000     0.0000     0.0000 nu         1 FTA      -0.520000
      2 C24          1.3970     0.0000     0.0000 ca         1 FTA       0.071600
      3 C26          2.0930     0.0000     1.2030 ca         1 FTA      -0.150000
      4 C28          3.4750     0.0010     1.2000 ca         1 FTA      -0.121500
      5 C30          4.1640     0.0000     0.0010 ca         1 FTA      -0.116000
      6 C29          3.4740     0.0010    -1.1980 ca         1 FTA      -0.121500
      7 C27          2.0940    -0.0050    -1.2020 ca         1 FTA      -0.150000
      8 C7          -0.6990     0.5140    -1.0970 ca         1 FTA       0.055600
      9 C6          -1.9180    -0.0420    -1.4670 ca         1 FTA      -0.157000
     10 C4          -2.6070     0.4640    -2.5490 ca         1 FTA      -0.095500
     11 C5          -0.1760     1.5810    -1.8170 ca         1 FTA      -0.157000
     12 C3          -0.8630     2.0840    -2.9030 ca         1 FTA      -0.095500
     13 C2          -2.0840     1.5300    -3.2690 ca         1 FTA       0.020600
     14 N1          -2.7830     2.0430    -4.3670 nu         1 FTA      -0.561400
     15 C17         -2.2670     3.0930    -5.0770 c2         1 FTA       0.080000
     16 C14         -2.9980     3.6680    -6.0690 ce         1 FTA      -0.208500
     17 C18         -2.5090     4.8380    -6.7330 cg         1 FTA       0.224500
     18 N21         -2.1380     5.7750    -7.2590 n1         1 FTA      -0.357800
     19 C13         -4.3050     3.0850    -6.4600 cc         1 FTA       0.611800
     20 N15         -5.0650     3.4740    -7.4680 nd         1 FTA      -0.532800
     21 N19         -6.1920     2.6370    -7.4450 na         1 FTA       0.128900
     22 N20         -6.0420     1.8230    -6.4570 nd         1 FTA      -0.152800
     23 N16         -4.9290     2.0650    -5.8610 nc         1 FTA      -0.399000
     24 H8          -0.3670    -0.7390    -0.5660 hn         1 FTA       0.382800
     25 H26          1.5830    -0.5430     1.9900 ha         1 FTA       0.143500
     26 H28          3.9110    -0.3810     2.1150 ha         1 FTA       0.139000
     27 H30          5.1790     0.1750    -0.3360 ha         1 FTA       0.145000
     28 H29          3.8050    -0.1740    -2.2140 ha         1 FTA       0.139000
     29 H27          1.6820    -0.0550    -2.2030 ha         1 FTA       0.143500
     30 H6          -2.3190    -0.8340    -0.8450 ha         1 FTA       0.154000
     31 H4          -3.5350    -0.0140    -2.8420 ha         1 FTA       0.146500
     32 H5           0.8880     1.6410    -1.6230 ha         1 FTA       0.154000
     33 H3          -0.7560     2.8610    -3.6500 ha         1 FTA       0.146500
     34 H1          -2.9380     2.9900    -4.6530 hn         1 FTA       0.498800
     35 H17         -1.5770     3.6130    -4.4240 h4         1 FTA       0.143000
     36 H19         -7.0060     2.6450    -8.0270 hn         1 FTA       0.366700
@<TRIPOS>BOND
     1     1     2 1
     2     1     8 1
     3     1    24 1
     4     2     3 ar
     5     2     7 ar
     6     3     4 ar
     7     3    25 1
     8     4     5 ar
     9     4    26 1
    10     5     6 ar
    11     5    27 1
    12     6     7 ar
    13     6    28 1
    14     7    29 1
    15     8     9 ar
    16     8    11 ar
    17     9    10 ar
    18     9    30 1
    19    10    13 ar
    20    10    31 1
    21    11    12 ar
    22    11    32 1
    23    12    13 ar
    24    12    33 1
    25    13    14 1
    26    14    15 1
    27    14    34 1
    28    15    16 2
    29    15    35 1
    30    16    17 1
    31    16    19 1
    32    17    18 3
    33    19    20 2
    34    19    23 1
    35    20    21 1
    36    21    22 1
    37    21    36 1
    38    22    23 2
@<TRIPOS>SUBSTRUCTURE
     1 FTA         1 TEMP              0 ****  ****    0 ROOT
