@<TRIPOS>MOLECULE
FTA
   36    38     1     0     0
SMALL
bcc


@<TRIPOS>ATOM
      1 N8           0.0000     0.0000     0.0000 nu         1 FTA      -0.232000
      2 C24          1.3970     0.0000     0.0000 ca         1 FTA       0.028600
      3 C26          2.0930     0.0000     1.2030 ca         1 FTA      -0.166000
      4 C28          3.4750     0.0010     1.2000 ca         1 FTA      -0.060500
      5 C30          4.1640     0.0000     0.0010 ca         1 FTA      -0.142000
      6 C29          3.4740     0.0010    -1.1980 ca         1 FTA      -0.060500
      7 C27          2.0940    -0.0050    -1.2020 ca         1 FTA      -0.166000
      8 C7          -0.6990     0.5140    -1.0970 ca         1 FTA      -0.004400
      9 C6          -1.9180    -0.0420    -1.4670 ca         1 FTA      -0.117000
     10 C4          -2.6070     0.4640    -2.5490 ca         1 FTA      -0.092000
     11 C5          -0.1760     1.5810    -1.8170 ca         1 FTA      -0.117000
     12 C3          -0.8630     2.0840    -2.9030 ca         1 FTA      -0.092000
     13 C2          -2.0840     1.5300    -3.2690 ca         1 FTA      -0.032400
     14 N1          -2.7830     2.0430    -4.3670 nu         1 FTA      -0.239400
     15 C17         -2.2670     3.0930    -5.0770 c2         1 FTA       0.015000
     16 C14         -2.9980     3.6680    -6.0690 ce         1 FTA      -0.127500
     17 C18         -2.5090     4.8380    -6.7330 cg         1 FTA       0.215500
     18 N21         -2.1390     5.7730    -7.2630 n1         1 FTA      -0.384800
     19 C13         -4.3050     3.0850    -6.4600 cc         1 FTA       0.631800
     20 N15         -5.0650     3.4740    -7.4680 nd         1 FTA      -0.694800
     21 N19         -6.1920     2.6370    -7.4450 na         1 FTA       0.588900
     22 N20         -6.0420     1.8230    -6.4570 nd         1 FTA      -0.292800
     23 N16         -4.9290     2.0650    -5.8610 nc         1 FTA      -0.387000
     24 H8          -0.5000     0.1760     0.8490 hn         1 FTA       0.274800
     25 H26          1.5550    -0.0750     2.1400 ha         1 FTA       0.116000
     26 H28          4.0190     0.0010     2.1360 ha         1 FTA       0.101000
     27 H30          5.2480     0.0010    -0.0000 ha         1 FTA       0.105000
     28 H29          4.0170     0.0010    -2.1350 ha         1 FTA       0.101000
     29 H27          1.5570    -0.0850    -2.1390 ha         1 FTA       0.116000
     30 H6          -2.2610    -0.9560    -0.9960 ha         1 FTA       0.124500
     31 H4          -3.5570     0.0290    -2.8370 ha         1 FTA       0.118500
     32 H5           0.8320     1.9260    -1.6180 ha         1 FTA       0.124500
     33 H3          -0.4550     2.9150    -3.4650 ha         1 FTA       0.118500
     34 H1          -3.3690     2.8470    -4.2560 hn         1 FTA       0.318800
     35 H17         -1.3100     3.5180    -4.7980 h4         1 FTA       0.121000
     36 H19         -6.9630     2.6710    -8.0820 hn         1 FTA       0.189700
@<TRIPOS>BOND
     1     1     2 1   
     2     1     8 1   
     3     1    24 1   
     4     2     3 ar  
     5     2     7 ar  
     6     3     4 ar  
     7     3    25 1   
     8     4     5 ar  
     9     4    26 1   
    10     5     6 ar  
    11     5    27 1   
    12     6     7 ar  
    13     6    28 1   
    14     7    29 1   
    15     8     9 ar  
    16     8    11 ar  
    17     9    10 ar  
    18     9    30 1   
    19    10    13 ar  
    20    10    31 1   
    21    11    12 ar  
    22    11    32 1   
    23    12    13 ar  
    24    12    33 1   
    25    13    14 1   
    26    14    15 1   
    27    14    34 1   
    28    15    16 2   
    29    15    35 1   
    30    16    17 1   
    31    16    19 1   
    32    17    18 3   
    33    19    20 2   
    34    19    23 1   
    35    20    21 1   
    36    21    22 1   
    37    21    36 1   
    38    22    23 2   
@<TRIPOS>SUBSTRUCTURE
     1 FTA         1 TEMP              0 ****  ****    0 ROOT
