@<TRIPOS>MOLECULE
FTB
   60    63     1     0     0
SMALL
bcc


@<TRIPOS>ATOM
      1 O33         3.1880   -1.1690   -0.2800 o         1 FTB     -0.582100
      2 C32         2.8970   -2.0930   -1.0590 c         1 FTB      0.667100
      3 C34         3.5110   -3.4670   -0.9060 c3        1 FTB     -0.179100
      4 N31         2.0020   -1.9440   -2.1150 n         1 FTB     -0.476100
      5 C28         1.2960   -0.7920   -2.4840 ca        1 FTB      0.084600
      6 C29         1.4110    0.4420   -1.8070 ca        1 FTB     -0.172000
      7 C30         0.6810    1.5460   -2.2330 ca        1 FTB     -0.096000
      8 C27         0.4190   -0.8680   -3.5970 ca        1 FTB     -0.172000
      9 C26        -0.3010    0.2450   -4.0050 ca        1 FTB     -0.096000
     10 C25        -0.1780    1.4660   -3.3320 ca        1 FTB     -0.145300
     11 C24        -0.9740    2.6480   -3.7610 c3        1 FTB     -0.063400
     12 C1         -0.4340    3.3060   -4.9920 cc        1 FTB      0.462800
     13 N2         -0.8660    4.5200   -5.4670 nd        1 FTB     -0.693000
     14 C3         -0.1110    4.7360   -6.6280 cd        1 FTB      0.493200
     15 N6         -0.1080    5.8200   -7.4940 n         1 FTB     -0.412300
     16 C12        -1.0850    6.8830   -7.3690 c3        1 FTB      0.103000
     17 C13        -2.4730    6.5450   -7.9120 c3        1 FTB     -0.104400
     18 C14        -3.4010    7.7240   -7.7090 c3        1 FTB     -0.077400
     19 C15        -4.7810    7.4300   -8.2380 c3        1 FTB     -0.092100
     20 C4          0.7730    3.6310   -6.8460 cc        1 FTB     -0.359200
     21 N5          0.5500    2.7380   -5.8010 na        1 FTB     -0.254900
     22 C9          1.6860    3.5590   -7.9690 c         1 FTB      0.763100
     23 O10         2.4680    2.6130   -8.1790 o         1 FTB     -0.637500
     24 N8          1.6100    4.6640   -8.8450 n         1 FTB     -0.481400
     25 C7          0.7120    5.7500   -8.6530 c         1 FTB      0.812500
     26 O11         0.6460    6.6660   -9.5000 o         1 FTB     -0.626500
     27 C16         2.5000    4.7180   -9.9950 c3        1 FTB      0.142300
     28 C17         3.8280    5.3680   -9.7330 ca        1 FTB     -0.150300
     29 C18         4.7420    4.7700   -8.8610 ca        1 FTB     -0.090000
     30 C19         5.9890    5.3450   -8.6280 ca        1 FTB     -0.151000
     31 C20         6.3430    6.5310   -9.2720 ca        1 FTB     -0.098000
     32 C21         5.4580    7.1430  -10.1520 ca        1 FTB     -0.175000
     33 C22         4.1950    6.5630  -10.3880 ca        1 FTB      0.148900
     34 F           3.3500    7.1650  -11.2580 f         1 FTB     -0.131900
     35 H341        4.0910   -3.7420   -1.8200 hc        1 FTB      0.071033
     36 H342        2.7190   -4.2340   -0.7290 hc        1 FTB      0.071033
     37 H343        4.2020   -3.4500   -0.0290 hc        1 FTB      0.071033
     38 H31         1.8350   -2.7480   -2.6780 hn        1 FTB      0.316500
     39 H29         2.0790    0.5450   -0.9350 ha        1 FTB      0.157000
     40 H30         0.7870    2.4980   -1.6880 ha        1 FTB      0.139500
     41 H27         0.2980   -1.8130   -4.1490 ha        1 FTB      0.157000
     42 H26        -0.9840    0.1620   -4.8650 ha        1 FTB      0.139500
     43 H241       -1.0060    3.4160   -2.9380 hc        1 FTB      0.084700
     44 H242       -2.0350    2.3370   -3.9720 hc        1 FTB      0.084700
     45 H121       -1.1670    7.1380   -6.2740 h1        1 FTB      0.077700
     46 H122       -0.6820    7.7820   -7.9200 h1        1 FTB      0.077700
     47 H131       -2.4070    6.3010   -9.0050 hc        1 FTB      0.054200
     48 H132       -2.8850    5.6450   -7.3860 hc        1 FTB      0.054200
     49 H141       -2.9830    8.6260   -8.2300 hc        1 FTB      0.041700
     50 H142       -3.4610    7.9700   -6.6150 hc        1 FTB      0.041700
     51 H151       -4.7450    7.2070   -9.3310 hc        1 FTB      0.034367
     52 H152       -5.4520    8.3090   -8.0790 hc        1 FTB      0.034367
     53 H153       -5.2250    6.5490   -7.7140 hc        1 FTB      0.034367
     54 HN5         1.0310    1.8860   -5.6520 hn        1 FTB      0.330700
     55 H161        2.6860    3.6520  -10.3240 h1        1 FTB      0.091200
     56 H162        1.9670    5.2700  -10.8240 h1        1 FTB      0.091200
     57 H18         4.4630    3.8270   -8.3600 ha        1 FTB      0.159000
     58 H19         6.6950    4.8620   -7.9370 ha        1 FTB      0.137000
     59 H20         7.3270    6.9870   -9.0860 ha        1 FTB      0.136000
     60 H21         5.7260    8.0750  -10.6680 ha        1 FTB      0.148000
@<TRIPOS>BOND
     1    1    2 2   
     2    2    3 1   
     3    2    4 1   
     4    3   35 1   
     5    3   36 1   
     6    3   37 1   
     7    4    5 1   
     8    4   38 1   
     9    5    6 ar  
    10    5    8 ar  
    11    6    7 ar  
    12    6   39 1   
    13    7   10 ar  
    14    7   40 1   
    15    8    9 ar  
    16    8   41 1   
    17    9   10 ar  
    18    9   42 1   
    19   10   11 1   
    20   11   12 1   
    21   11   43 1   
    22   11   44 1   
    23   12   13 2   
    24   12   21 1   
    25   13   14 1   
    26   14   15 1   
    27   14   20 2   
    28   15   16 1   
    29   15   25 1   
    30   16   17 1   
    31   16   45 1   
    32   16   46 1   
    33   17   18 1   
    34   17   47 1   
    35   17   48 1   
    36   18   19 1   
    37   18   49 1   
    38   18   50 1   
    39   19   51 1   
    40   19   52 1   
    41   19   53 1   
    42   20   21 1   
    43   20   22 1   
    44   21   54 1   
    45   22   23 2   
    46   22   24 1   
    47   24   25 1   
    48   24   27 1   
    49   25   26 2   
    50   27   28 1   
    51   27   55 1   
    52   27   56 1   
    53   28   29 ar  
    54   28   33 ar  
    55   29   30 ar  
    56   29   57 1   
    57   30   31 ar  
    58   30   58 1   
    59   31   32 ar  
    60   31   59 1   
    61   32   33 ar  
    62   32   60 1   
    63   33   34 1   
@<TRIPOS>SUBSTRUCTURE
     1 FTB         1 TEMP              0 ****  ****    0 ROOT
