@<TRIPOS>MOLECULE
FTC
   39    40     1     0     0
SMALL
bcc


@<TRIPOS>ATOM
      1 C1           0.0000     0.0000     0.0000 ca         1 FTC       0.330200
      2 N2           1.3220     0.0000     0.0000 nb         1 FTC      -0.500000
      3 C3           2.0140     0.0000     1.1240 ca         1 FTC       0.437200
      4 C4           1.3750    -0.0100     2.3490 ca         1 FTC      -0.183900
      5 C5          -0.0130    -0.0150     2.3910 ca         1 FTC      -0.046000
      6 C6          -0.7100    -0.0100     1.1960 ca         1 FTC      -0.250300
      7 Cl7          2.2980    -0.0180     3.8190 cl         1 FTC      -0.011400
      8 N8          -0.6900     0.0060    -1.2120 ns         1 FTC       0.005600
      9 C9          -0.0140    -0.0920    -2.3730 cs         1 FTC       0.250400
     10 S9           1.6970    -0.0810    -2.3690 s          1 FTC      -0.638400
     11 N10         -0.6840    -0.1970    -3.5360 ns         1 FTC      -0.065900
     12 C11          0.0500    -0.3020    -4.7980 c3         1 FTC       0.025000
     13 C12         -0.9400    -0.4090    -5.9580 c3         1 FTC      -0.085700
     14 C13         -0.1840    -0.5180    -7.2580 ca         1 FTC       0.384600
     15 N14          0.1500    -1.7070    -7.7200 nb         1 FTC      -0.583000
     16 C15          0.8120    -1.8550    -8.8510 ca         1 FTC       0.441200
     17 C16          1.1850    -0.7580    -9.6010 ca         1 FTC      -0.323300
     18 C17          0.8530     0.5150    -9.1500 ca         1 FTC       0.146100
     19 C18          0.1580     0.6300    -7.9470 ca         1 FTC      -0.038400
     20 O17          1.2010     1.6180    -9.8600 os         1 FTC      -0.258900
     21 CA           1.8970     1.1600   -11.0210 c3         1 FTC       0.174400
     22 CB           2.3200     2.3600   -11.8700 c3         1 FTC      -0.002100
     23 F18         -0.1870     1.8450    -7.4680 f          1 FTC      -0.111900
     24 H3           3.0970     0.0020     1.0850 h4         1 FTC      -0.003900
     25 H5          -0.5380    -0.0230     3.3390 ha         1 FTC       0.118000
     26 H6          -1.7930    -0.0120     1.1920 ha         1 FTC       0.113000
     27 HN8         -1.6900     0.0540    -1.2180 hn         1 FTC       0.149500
     28 H10         -1.6850    -0.2090    -3.5380 hn         1 FTC       0.153500
     29 H111         0.6680     0.5770    -4.9310 h1         1 FTC       0.059200
     30 H112         0.6790    -1.1850    -4.7770 h1         1 FTC       0.059200
     31 H121        -1.5680     0.4730    -5.9790 hc         1 FTC       0.031200
     32 H122        -1.5570    -1.2890    -5.8260 hc         1 FTC       0.031200
     33 H15          1.0670    -2.8500    -9.1950 h4         1 FTC      -0.015900
     34 H16          1.7260    -0.8880   -10.5310 ha         1 FTC       0.146000
     35 HA1          1.2460     0.5180   -11.6020 h1         1 FTC       0.010700
     36 HA2          2.7760     0.6040   -10.7180 h1         1 FTC       0.010700
     37 HB1          2.8480     2.0120   -12.7500 hc         1 FTC       0.014033
     38 HB2          1.4410     2.9160   -12.1720 hc         1 FTC       0.014033
     39 HB3          2.9720     3.0020   -11.2890 hc         1 FTC       0.014033
@<TRIPOS>BOND
     1     1     2 ar  
     2     1     6 ar  
     3     1     8 1   
     4     2     3 ar  
     5     3     4 ar  
     6     3    24 1   
     7     4     5 ar  
     8     4     7 1   
     9     5     6 ar  
    10     5    25 1   
    11     6    26 1   
    12     8     9 1   
    13     8    27 1   
    14     9    10 2   
    15     9    11 1   
    16    11    12 1   
    17    11    28 1   
    18    12    13 1   
    19    12    29 1   
    20    12    30 1   
    21    13    14 1   
    22    13    31 1   
    23    13    32 1   
    24    14    15 ar  
    25    14    19 ar  
    26    15    16 ar  
    27    16    17 ar  
    28    16    33 1   
    29    17    18 ar  
    30    17    34 1   
    31    18    19 ar  
    32    18    20 1   
    33    19    23 1   
    34    20    21 1   
    35    21    22 1   
    36    21    35 1   
    37    21    36 1   
    38    22    37 1   
    39    22    38 1   
    40    22    39 1   
@<TRIPOS>SUBSTRUCTURE
     1 FTC         1 TEMP              0 ****  ****    0 ROOT
