@<TRIPOS>MOLECULE
molecule
   36    37     1     0     0
SMALL
bcc


@<TRIPOS>ATOM
      1 O2           0.0000     0.0000     0.0000 o          1 FTD      -0.704500
      2 C2           1.2160     0.0000     0.0000 c          1 FTD       0.813500
      3 N3           1.8650     0.0000     1.1720 ns         1 FTD      -0.486100
      4 C4           3.2520    -0.0020     1.2760 c2         1 FTD       0.016600
      5 N4           3.8460    -0.0010     2.5380 nz         1 FTD      -0.696400
      6 C5           4.0220    -0.0010     0.1900 c2         1 FTD       0.026300
      7 F5           5.3700    -0.0030     0.2920 f          1 FTD      -0.151500
      8 C6           3.3420    -0.0010    -1.1640 c3         1 FTD       0.143200
      9 N1           1.8710    -0.0060    -1.1780 n          1 FTD      -0.482800
     10 C1'          1.1340    -0.0110    -2.4440 c3         1 FTD       0.343500
     11 O4'          2.0550    -0.0510    -3.5420 os         1 FTD      -0.404600
     12 C2'          0.2430    -1.2840    -2.5300 c3         1 FTD      -0.001300
     13 S3'         -0.0450    -1.3550    -4.3460 ss         1 FTD      -0.384200
     14 C4'          1.3980    -0.3150    -4.7970 c3         1 FTD       0.261200
     15 C5'          2.3330    -1.0780    -5.7390 c3         1 FTD       0.240400
     16 O5'          2.7710    -2.2810    -5.1040 os         1 FTD      -0.587200
     17 PA           3.7690    -3.3290    -5.8090 p5         1 FTD       1.427800
     18 O1A          5.2030    -2.6360    -6.0390 o          1 FTD      -0.842500
     19 O3A          3.2070    -3.7450    -7.1130 o          1 FTD      -0.842500
     20 O2A          3.9430    -4.6210    -4.8640 os         1 FTD      -0.713800
     21 PB           4.5230    -6.1060    -5.0950 p5         1 FTD       1.303900
     22 O3B          3.9610    -7.0850    -3.9470 o          1 FTD      -0.701167
     23 O2B          6.1310    -6.0700    -5.0290 o          1 FTD      -0.701167
     24 O1B          4.0940    -6.6030    -6.4210 o          1 FTD      -0.701167
     25 H1           1.3250     0.0010     2.0150 hn         1 FTD       0.328500
     26 H2           4.4180    -0.8170     2.6380 hn         1 FTD       0.311133
     27 H3           3.1340    -0.0050     3.2410 hn         1 FTD       0.311133
     28 H4           3.6390     0.9230    -1.6430 h1         1 FTD       0.091700
     29 H5           3.6450    -0.9230    -1.6460 h1         1 FTD       0.091700
     30 H6           0.5140     0.8740    -2.5180 h2         1 FTD       0.051700
     31 H7           0.7800    -2.1600    -2.1860 h1         1 FTD       0.095200
     32 H8          -0.6870    -1.1460    -1.9930 h1         1 FTD       0.095200
     33 H9           1.0670     0.6110    -5.2500 h2         1 FTD       0.044700
     34 H10          1.8030    -1.3230    -6.6520 h1         1 FTD       0.045700
     35 H11          3.1910    -0.4600    -5.9750 h1         1 FTD       0.045700
     36 H43          4.3940     0.8290     2.6480 hn         1 FTD       0.311133
@<TRIPOS>BOND
     1    12    13 1
     2    12    10 1
     3    13    14 1
     4     1     2 2
     5     2     3 1
     6     2     9 1
     7    10     9 1
     8    10    11 1
     9     3     4 1
    10     9     8 1
    11    14    11 1
    12    14    15 1
    13     4     5 1
    14     4     6 2
    15     8     6 1
    16     6     7 1
    17    15    16 1
    18    16    17 1
    19    18    17 1
    20    22    21 1
    21    20    17 1
    22    20    21 1
    23    17    19 1
    24    21    24 1
    25    21    23 1
    26     3    25 1
    27     5    26 1
    28     5    27 1
    29     8    28 1
    30     8    29 1
    31    10    30 1
    32    12    31 1
    33    12    32 1
    34    14    33 1
    35    15    34 1
    36    15    35 1
    37    36     5 1
@<TRIPOS>SUBSTRUCTURE
     1 FTD         1 TEMP              0 ****  ****    0 ROOT
