@<TRIPOS>MOLECULE
FTD
   35    36     1     0     0
SMALL
bcc


@<TRIPOS>ATOM
      1 O2          0.2110    2.0470   -1.0120 o         1 FTD     -0.743500
      2 C2          1.0990    1.4860   -0.3100 c         1 FTD      0.716500
      3 N3          1.0740    1.7140    1.0970 n         1 FTD     -0.312500
      4 C4          2.2610    1.3990    1.8300 cc        1 FTD     -0.314600
      5 N4          2.5630    2.1340    3.0110 nh        1 FTD     -0.369200
      6 C5          3.1340    0.4400    1.2500 cc        1 FTD      0.106900
      7 F5          4.1690   -0.0330    2.0030 f         1 FTD     -0.226500
      8 C6          2.9830   -0.0070   -0.0500 cd        1 FTD     -0.356400
      9 N1          2.0530    0.6030   -0.9270 n         1 FTD     -0.250000
     10 C1'         1.4610   -0.2920   -1.9300 c3        1 FTD      0.260500
     11 O4'         2.5030   -0.7680   -2.8190 os        1 FTD     -0.390600
     12 C2'         0.7190   -1.5310   -1.3800 c3        1 FTD     -0.056300
     13 S3'         0.8330   -2.7930   -2.6070 ss        1 FTD     -0.425200
     14 C4'         1.9980   -1.8130   -3.6410 c3        1 FTD      0.248200
     15 C5'         3.1710   -2.6420   -4.1860 c3        1 FTD      0.209400
     16 O5'         2.8100   -3.2040   -5.3980 os        1 FTD     -0.584200
     17 PA          3.8060   -2.9620   -6.7210 p5        1 FTD      1.599800
     18 O1A         3.0130   -2.1650   -7.6760 o         1 FTD     -0.883000
     19 O3A         5.0960   -2.5080   -6.1590 o         1 FTD     -0.883000
     20 O2A         3.9910   -4.4870   -7.2460 os        1 FTD     -0.827800
     21 PB          4.2180   -5.9680   -7.9110 p5        1 FTD      1.595800
     22 O3B         3.0030   -6.8080   -7.8740 o         1 FTD     -0.890000
     23 O2B         5.0270   -5.8360   -9.1430 o         1 FTD     -0.890000
     24 O1B         5.2400   -6.5020   -6.7410 oh        1 FTD     -0.808400
     25 H1          0.7400    2.6410    1.3040 hn        1 FTD      0.237500
     26 H2          2.5340    1.4930    3.7870 hn        1 FTD      0.139700
     27 H3          3.5180    2.4510    2.9500 hn        1 FTD      0.139700
     28 H4          5.6990   -5.8010   -6.2990 ho        1 FTD      0.423000
     29 H5          3.5940   -0.8000   -0.4940 h4        1 FTD      0.154000
     30 H6          0.7480    0.3300   -2.5510 h2        1 FTD      0.074700
     31 H7          1.1860   -1.8800   -0.4280 h1        1 FTD      0.067200
     32 H8         -0.3460   -1.2760   -1.1820 h1        1 FTD      0.067200
     33 H9          1.3890   -1.3840   -4.4760 h2        1 FTD      0.075700
     34 H10         3.3940   -3.4580   -3.4420 h1        1 FTD      0.049200
     35 H11         4.0760   -1.9770   -4.2970 h1        1 FTD      0.049200
@<TRIPOS>BOND
     1    1    2 2   
     2    2    3 1   
     3    2    9 1   
     4    3    4 2   
     5    3   25 1   
     6    4    5 1   
     7    4    6 1   
     8    5   26 1   
     9    5   27 1   
    10    6    7 1   
    11    6    8 2   
    12    8    9 1   
    13    8   29 1   
    14    9   10 1   
    15   10   11 1   
    16   10   12 1   
    17   10   30 1   
    18   11   14 1   
    19   12   13 1   
    20   12   31 1   
    21   12   32 1   
    22   13   14 1   
    23   14   15 1   
    24   14   33 1   
    25   15   16 1   
    26   15   34 1   
    27   15   35 1   
    28   16   17 1   
    29   17   18 1   
    30   17   19 1   
    31   17   20 1   
    32   20   21 1   
    33   21   22 1   
    34   21   23 1   
    35   21   24 1   
    36   24   28 1   
@<TRIPOS>SUBSTRUCTURE
     1 FTD         1 TEMP              0 ****  ****    0 ROOT
