@<TRIPOS>MOLECULE
FTE
   14    14     1     0     0
SMALL
bcc


@<TRIPOS>ATOM
      1 C1           0.0000     0.0000     0.0000 ca         1 FTE      -0.110500
      2 C2           1.4190     0.0000     0.0000 ca         1 FTE       0.083400
      3 C3           2.1130     0.0000     1.2370 ca         1 FTE      -0.110500
      4 C4           1.4090     0.0000     2.4060 ca         1 FTE      -0.085500
      5 C5           0.0200     0.0000     2.3880 ca         1 FTE      -0.095000
      6 C6          -0.6740     0.0000     1.1860 ca         1 FTE      -0.085500
      7 N13          2.0890    -0.0000    -1.1430 ne         1 FTE      -0.277800
      8 C15          3.3390    -0.0000    -1.1350 c1         1 FTE       0.426300
      9 S17          4.8920    -0.0160    -1.1480 s          1 FTE      -0.299900
     10 H1          -0.5440    -0.0000    -0.9370 ha         1 FTE       0.118500
     11 H3           3.1960     0.0000     1.2530 ha         1 FTE       0.118500
     12 H4           1.9360    -0.0000     3.3520 ha         1 FTE       0.107000
     13 H5          -0.5280     0.0000     3.3230 ha         1 FTE       0.105000
     14 H6          -1.7570    -0.0000     1.1900 ha         1 FTE       0.107000
@<TRIPOS>BOND
     1     1     2 ar  
     2     1     6 ar  
     3     1    10 1   
     4     2     3 ar  
     5     2     7 1   
     6     3     4 ar  
     7     3    11 1   
     8     4     5 ar  
     9     4    12 1   
    10     5     6 ar  
    11     5    13 1   
    12     6    14 1   
    13     7     8 2   
    14     8     9 2   
@<TRIPOS>SUBSTRUCTURE
     1 FTE         1 TEMP              0 ****  ****    0 ROOT
