@<TRIPOS>MOLECULE
molecule
   14    14     1     0     0
SMALL
bcc


@<TRIPOS>ATOM
      1 C1           0.0000     0.0000     0.0000 ca         1 FTE      -0.132500
      2 C2           1.4190     0.0000     0.0000 ca         1 FTE       0.155400
      3 C3           2.1130     0.0000     1.2370 ca         1 FTE      -0.132500
      4 C4           1.4090     0.0000     2.4060 ca         1 FTE      -0.128000
      5 C5           0.0200     0.0000     2.3880 ca         1 FTE      -0.161000
      6 C6          -0.6740     0.0000     1.1860 ca         1 FTE      -0.128000
      7 N13          2.0890    -0.0000    -1.1430 ne         1 FTE      -0.506800
      8 C15          3.3390    -0.0000    -1.1350 c1         1 FTE       0.488300
      9 S17          4.8920     0.0250    -1.1160 s          1 FTE      -0.201900
     10 H1          -0.2680    -0.3210    -1.0000 ha         1 FTE       0.144000
     11 H3           3.1150    -0.3980     1.1360 ha         1 FTE       0.144000
     12 H4           2.1240     0.0920     3.2150 ha         1 FTE       0.161000
     13 H5          -0.6650     0.3010     3.1720 ha         1 FTE       0.138000
     14 H6          -1.3900    -0.5510     1.7840 ha         1 FTE       0.161000
@<TRIPOS>BOND
     1     1     2 ar
     2     1     6 ar
     3     2     3 ar
     4     2     7 1
     5     3     4 ar
     6     4     5 ar
     7     5     6 ar
     8     7     8 2
     9     8     9 2
    10     1    10 1
    11     3    11 1
    12     4    12 1
    13     5    13 1
    14     6    14 1
@<TRIPOS>SUBSTRUCTURE
     1 FTE         1 TEMP              0 ****  ****    0 ROOT
