@<TRIPOS>MOLECULE
molecule
   66    70     1     0     0
SMALL
bcc


@<TRIPOS>ATOM
      1 C1           0.0000     0.0000     0.0000 c3         1 FTH      -0.007400
      2 N2           1.4660     0.0000     0.0000 na         1 FTH      -0.190900
      3 C3           2.2670     0.0000     1.0870 cc         1 FTH       0.352400
      4 N4           3.5090    -0.0010     0.6900 nd         1 FTH      -0.728000
      5 C5           3.5460    -0.0010    -0.6500 cd         1 FTH       0.342200
      6 C6           2.2770    -0.0070    -1.1010 cc         1 FTH      -0.224900
      7 C7           1.8350    -0.0100    -2.5430 c3         1 FTH      -0.260100
      8 C8           1.6940    -1.4530    -3.0300 c3         1 FTH       0.179500
      9 N9           2.9970    -2.1250    -2.9580 n7         1 FTH      -0.673200
     10 C10          3.0870    -2.7320    -1.6240 c3         1 FTH       0.089100
     11 C11          4.4080    -3.4420    -1.4820 ca         1 FTH      -0.059300
     12 C12          5.5070    -2.7600    -0.9910 ca         1 FTH      -0.122500
     13 C13          6.7200    -3.4040    -0.8600 ca         1 FTH      -0.071500
     14 C14          6.8370    -4.7470    -1.2220 ca         1 FTH      -0.028000
     15 C15          7.9440    -5.3380    -0.9290 cg         1 FTH       0.217800
     16 N16          9.1340    -6.1870    -0.6220 n1         1 FTH      -0.384800
     17 C17          5.7230    -5.4300    -1.7160 ca         1 FTH      -0.071500
     18 C18          4.5160    -4.7750    -1.8380 ca         1 FTH      -0.122500
     19 C19          1.2030    -1.4560    -4.4540 c          1 FTH       0.645100
     20 O20          2.0000    -1.5050    -5.3680 o          1 FTH      -0.514100
     21 N21         -0.1170    -1.4040    -4.7130 n          1 FTH      -0.489800
     22 C22         -1.1010    -1.2260    -3.6330 c3         1 FTH       0.096000
     23 C23         -1.8300     0.0970    -3.8680 c3         1 FTH      -0.083200
     24 C24         -2.2430     0.2200    -5.3060 ce         1 FTH      -0.057900
     25 C25         -1.7030    -0.4910    -6.3010 cf         1 FTH      -0.073400
     26 C26         -0.6310    -1.5170    -6.0850 c3         1 FTH       0.129200
     27 C27         -2.1790    -0.2520    -7.6690 ca         1 FTH      -0.070800
     28 C28         -1.5710     0.7050    -8.4760 ca         1 FTH      -0.131000
     29 C29         -2.0240     0.9270    -9.7680 ca         1 FTH      -0.155000
     30 C30         -3.0670     0.2280   -10.2940 ca         1 FTH      -0.082000
     31 C31         -3.7290    -0.7530    -9.5370 ca         1 FTH      -0.006000
     32 C32         -4.8080    -1.4800   -10.0680 ca         1 FTH      -0.116000
     33 C33         -5.4240    -2.4230    -9.3030 ca         1 FTH      -0.129000
     34 C34         -5.0020    -2.6780    -8.0000 ca         1 FTH      -0.113000
     35 C35         -3.9580    -1.9900    -7.4540 ca         1 FTH      -0.136000
     36 C36         -3.2980    -1.0190    -8.2140 ca         1 FTH      -0.034000
     37 C37         -3.2780     1.1550    -5.6300 cg         1 FTH       0.188500
     38 N38         -4.1070     1.8920    -5.8710 n1         1 FTH      -0.349800
     39 HC11        -0.0120     0.9060     0.5940 h1         1 FTH       0.072033
     40 HC1A        -0.3660     0.3680    -0.9510 h1         1 FTH       0.072033
     41 HC1B        -0.2930    -0.7310     0.7440 h1         1 FTH       0.072033
     42 HC3          2.4610    -0.4530     2.0510 h5         1 FTH       0.107100
     43 HC5          4.3270     0.2670    -1.3510 h4         1 FTH       0.064100
     44 HC71         1.2720    -0.8530    -2.9230 hc         1 FTH       0.118200
     45 HC72         0.9560     0.5460    -2.8460 hc         1 FTH       0.118200
     46 HC8          0.9830    -1.9770    -2.4030 h1         1 FTH      -0.046300
     47 HN9          2.7990    -3.0220    -2.5600 hn         1 FTH       0.414800
     48 H101         3.3580    -2.2420    -0.6970 h1         1 FTH       0.057700
     49 H102         2.2360    -3.2990    -1.2660 h1         1 FTH       0.057700
     50 HC12         5.5850    -1.6940    -0.8150 ha         1 FTH       0.150500
     51 HC13         7.5630    -2.8160    -0.5190 ha         1 FTH       0.151500
     52 HC17         6.0240    -6.4630    -1.8450 ha         1 FTH       0.151500
     53 HC18         3.6260    -5.0480    -2.3920 ha         1 FTH       0.150500
     54 H221        -1.6040    -2.1840    -3.5840 h1         1 FTH       0.072200
     55 H222        -0.6090    -0.7810    -2.7770 h1         1 FTH       0.072200
     56 H231        -2.8440     0.1540    -3.4880 hc         1 FTH       0.096200
     57 H232        -1.3020     1.0380    -3.9690 hc         1 FTH       0.096200
     58 H261         0.0980    -1.1380    -6.7910 h1         1 FTH       0.108700
     59 H262        -1.3510    -2.1640    -6.5720 h1         1 FTH       0.108700
     60 HC28        -0.5140     0.7290    -8.7120 ha         1 FTH       0.154000
     61 HC29        -1.3970     1.7650   -10.0480 ha         1 FTH       0.149000
     62 HC30        -3.1180     0.2430   -11.3760 ha         1 FTH       0.136000
     63 HC32        -5.0080    -1.9150   -11.0400 ha         1 FTH       0.148000
     64 HC33        -5.9890    -3.2030    -9.7980 ha         1 FTH       0.130000
     65 HC34        -5.3530    -3.4440    -7.3190 ha         1 FTH       0.130000
     66 HC35        -3.5980    -2.0290    -6.4330 ha         1 FTH       0.132000
@<TRIPOS>BOND
     1     1     2 1
     2     1    39 1
     3     1    40 1
     4     1    41 1
     5     2     3 1
     6     2     6 1
     7     3     4 2
     8     3    42 1
     9     4     5 1
    10     5     6 2
    11     5    43 1
    12     6     7 1
    13     7     8 1
    14     7    44 1
    15     7    45 1
    16     8     9 1
    17     8    19 1
    18     8    46 1
    19     9    10 1
    20     9    47 1
    21    10    11 1
    22    10    48 1
    23    10    49 1
    24    11    12 ar
    25    11    18 ar
    26    12    13 ar
    27    12    50 1
    28    13    14 ar
    29    13    51 1
    30    14    15 1
    31    14    17 ar
    32    15    16 3
    33    17    18 ar
    34    17    52 1
    35    18    53 1
    36    19    20 2
    37    19    21 1
    38    21    22 1
    39    21    26 1
    40    22    23 1
    41    22    54 1
    42    22    55 1
    43    23    24 1
    44    23    56 1
    45    23    57 1
    46    24    25 2
    47    24    37 1
    48    25    26 1
    49    25    27 1
    50    26    58 1
    51    26    59 1
    52    27    28 ar
    53    27    36 ar
    54    28    29 ar
    55    28    60 1
    56    29    30 ar
    57    29    61 1
    58    30    31 ar
    59    30    62 1
    60    31    32 ar
    61    31    36 ar
    62    32    33 ar
    63    32    63 1
    64    33    34 ar
    65    33    64 1
    66    34    35 ar
    67    34    65 1
    68    35    36 ar
    69    35    66 1
    70    37    38 3
@<TRIPOS>SUBSTRUCTURE
     1 FTH         1 TEMP              0 ****  ****    0 ROOT
