@<TRIPOS>MOLECULE
FTH
   66    72     1     0     0
SMALL
bcc


@<TRIPOS>ATOM
      1 C1           0.0000     0.0000     0.0000 c3         1 FTH      -0.150000
      2 N2           1.4660     0.0000     0.0000 na         1 FTH       0.334000
      3 C3           2.2670     0.0000     1.0870 c2         1 FTH      -0.309000
      4 N4           3.5090    -0.0010     0.6900 n2         1 FTH      -0.136000
      5 C5           3.5460    -0.0010    -0.6500 c2         1 FTH      -0.097000
      6 C6           2.2770    -0.0070    -1.1010 c2         1 FTH      -0.330000
      7 C7           1.8350    -0.0100    -2.5430 c3         1 FTH      -0.196000
      8 C8           1.6940    -1.4530    -3.0300 DU         1 FTH       0.145000
      9 N9           2.9970    -2.1250    -2.9580 n7         1 FTH      -0.142000
     10 C10          3.0870    -2.7320    -1.6240 DU         1 FTH      -0.097000
     11 C11          4.4080    -3.4420    -1.4820 ca         1 FTH      -0.056000
     12 C12          5.5070    -2.7600    -0.9910 ca         1 FTH      -0.100500
     13 C13          6.7200    -3.4040    -0.8600 ca         1 FTH      -0.030500
     14 C14          6.8370    -4.7470    -1.2220 ca         1 FTH      -0.042000
     15 C15          7.9440    -5.3380    -0.9290 c1         1 FTH      -0.023000
     16 N16          9.1340    -6.1870    -0.6220 n1         1 FTH      -0.151000
     17 C17          5.7230    -5.4300    -1.7160 ca         1 FTH      -0.030500
     18 C18          4.5160    -4.7750    -1.8380 ca         1 FTH      -0.100500
     19 C19          1.2030    -1.4560    -4.4540 c2         1 FTH       0.208000
     20 O20          2.0000    -1.5050    -5.3680 o          1 FTH      -0.315000
     21 N21         -0.1170    -1.4040    -4.7130 n          1 FTH      -0.007000
     22 C22         -1.1010    -1.2260    -3.6330 c3         1 FTH      -0.074000
     23 C23         -1.8300     0.0970    -3.8680 c3         1 FTH      -0.106000
     24 C24         -2.2430     0.2200    -5.3060 c2         1 FTH      -0.057000
     25 C25         -1.7030    -0.4910    -6.3010 c2         1 FTH      -0.086000
     26 C26         -0.6310    -1.5170    -6.0850 c3         1 FTH      -0.049000
     27 C27         -2.1790    -0.2520    -7.6690 ca         1 FTH      -0.039000
     28 C28         -1.5710     0.7050    -8.4760 ca         1 FTH      -0.123000
     29 C29         -2.0240     0.9270    -9.7680 ca         1 FTH      -0.134000
     30 C30         -3.0670     0.2280   -10.2940 ca         1 FTH      -0.049000
     31 C31         -3.7290    -0.7530    -9.5370 ca         1 FTH       0.001000
     32 C32         -4.8080    -1.4800   -10.0680 ca         1 FTH      -0.090000
     33 C33         -5.4240    -2.4230    -9.3030 ca         1 FTH      -0.104000
     34 C34         -5.0020    -2.6780    -8.0000 ca         1 FTH      -0.082000
     35 C35         -3.9580    -1.9900    -7.4540 ca         1 FTH      -0.119000
     36 C36         -3.2980    -1.0190    -8.2140 ca         1 FTH      -0.036000
     37 C37         -3.2780     1.1550    -5.6300 c1         1 FTH      -0.111000
     38 N38         -4.1070     1.8920    -5.8710 n1         1 FTH      -0.039000
     39 HC11        -0.0120     0.9060     0.5940 h1         1 FTH       0.081667
     40 HC1A        -0.3660     0.3680    -0.9510 h1         1 FTH       0.081667
     41 HC1B        -0.2930    -0.7310     0.7440 h1         1 FTH       0.081667
     42 HC3          2.4610    -0.4530     2.0510 h5         1 FTH       0.211000
     43 HC5          4.3270     0.2670    -1.3510 h4         1 FTH       0.165000
     44 HC71         1.2720    -0.8530    -2.9230 DU         1 FTH       0.049000
     45 HC72         0.9560     0.5460    -2.8460 hc         1 FTH       0.085000
     46 HC8          0.9830    -1.9770    -2.4030 ha         1 FTH      -0.031000
     47 HN9          2.7990    -3.0220    -2.5600 DU         1 FTH       0.168000
     48 H101         3.3580    -2.2420    -0.6970 ha         1 FTH       0.067500
     49 H102         2.2360    -3.2990    -1.2660 ha         1 FTH       0.067500
     50 HC12         5.5850    -1.6940    -0.8150 ha         1 FTH       0.124500
     51 HC13         7.5630    -2.8160    -0.5190 ha         1 FTH       0.119500
     52 HC17         6.0240    -6.4630    -1.8450 ha         1 FTH       0.119500
     53 HC18         3.6260    -5.0480    -2.3920 ha         1 FTH       0.124500
     54 H221        -1.6040    -2.1840    -3.5840 h1         1 FTH       0.083500
     55 H222        -0.6090    -0.7810    -2.7770 h1         1 FTH       0.083500
     56 H231        -2.8440     0.1540    -3.4880 hc         1 FTH       0.104500
     57 H232        -1.3020     1.0380    -3.9690 hc         1 FTH       0.104500
     58 H261         0.0980    -1.1380    -6.7910 h1         1 FTH       0.119000
     59 H262        -1.3510    -2.1640    -6.5720 h1         1 FTH       0.119000
     60 HC28        -0.5140     0.7290    -8.7120 ha         1 FTH       0.131000
     61 HC29        -1.3970     1.7650   -10.0480 ha         1 FTH       0.124000
     62 HC30        -3.1180     0.2430   -11.3760 ha         1 FTH       0.107000
     63 HC32        -5.0080    -1.9150   -11.0400 ha         1 FTH       0.121000
     64 HC33        -5.9890    -3.2030    -9.7980 ha         1 FTH       0.102000
     65 HC34        -5.3530    -3.4440    -7.3190 ha         1 FTH       0.102000
     66 HC35        -3.5980    -2.0290    -6.4330 ha         1 FTH       0.109000
@<TRIPOS>BOND
     1     1     2 1   
     2     1    39 1   
     3     1    40 1   
     4     1    41 1   
     5     2     3 1   
     6     2     6 1   
     7     3     4 1   
     8     3    42 1   
     9     4     5 1   
    10     5     6 1   
    11     5    43 1   
    12     6     7 1   
    13     7     8 1   
    14     7    44 1   
    15     7    45 1   
    16     8     9 1   
    17     8    19 1   
    18     8    44 1   
    19     8    46 1   
    20     9    10 1   
    21     9    47 1   
    22    10    11 1   
    23    10    47 1   
    24    10    48 1   
    25    10    49 1   
    26    11    12 1   
    27    11    18 1   
    28    12    13 1   
    29    12    50 1   
    30    13    14 1   
    31    13    51 1   
    32    14    15 1   
    33    14    17 1   
    34    15    16 1   
    35    17    18 1   
    36    17    52 1   
    37    18    53 1   
    38    19    20 1   
    39    19    21 1   
    40    21    22 1   
    41    21    26 1   
    42    22    23 1   
    43    22    54 1   
    44    22    55 1   
    45    23    24 1   
    46    23    56 1   
    47    23    57 1   
    48    24    25 1   
    49    24    37 1   
    50    25    26 1   
    51    25    27 1   
    52    26    58 1   
    53    26    59 1   
    54    27    28 1   
    55    27    36 1   
    56    28    29 1   
    57    28    60 1   
    58    29    30 1   
    59    29    61 1   
    60    30    31 1   
    61    30    62 1   
    62    31    32 1   
    63    31    36 1   
    64    32    33 1   
    65    32    63 1   
    66    33    34 1   
    67    33    64 1   
    68    34    35 1   
    69    34    65 1   
    70    35    36 1   
    71    35    66 1   
    72    37    38 1   
@<TRIPOS>SUBSTRUCTURE
     1 FTH         1 TEMP              0 ****  ****    0 ROOT
