@<TRIPOS>MOLECULE
molecule
   58    62     1     0     0
SMALL
bcc


@<TRIPOS>ATOM
      1 C1           0.0000     0.0000     0.0000 c3         1 FTI      -0.061200
      2 C2           1.5300     0.0000     0.0000 c3         1 FTI       0.053000
      3 N1           1.9880     0.0000     1.3990 n          1 FTI      -0.538800
      4 C3           1.6280     1.1580     2.2300 c3         1 FTI       0.115200
      5 C4           0.1960     1.5250     1.9800 ce         1 FTI       0.010600
      6 C5          -0.4480     2.4860     2.8820 ca         1 FTI      -0.057800
      7 C6          -0.4040     3.9200     2.6000 ca         1 FTI      -0.032000
      8 C7          -1.0430     4.8140     3.4940 ca         1 FTI      -0.052000
      9 C8          -1.6920     4.3050     4.6310 ca         1 FTI      -0.083000
     10 C9          -1.7170     2.9660     4.8780 ca         1 FTI      -0.145000
     11 C10         -1.1100     2.0540     4.0280 ca         1 FTI      -0.127000
     12 C11         -1.0100     6.1930     3.2270 ca         1 FTI      -0.080000
     13 C12          2.7020    -1.0250     1.9010 c          1 FTI       0.613100
     14 C13          0.2390     4.4220     1.4620 ca         1 FTI      -0.143000
     15 C14         -0.3710     6.6480     2.1140 ca         1 FTI      -0.117000
     16 C15          0.2520     5.7660     1.2340 ca         1 FTI      -0.144000
     17 N2           4.3730    -4.8850     3.1020 nc         1 FTI      -0.688000
     18 C17          5.4880    -4.3070     2.7480 cd         1 FTI       0.380400
     19 N3           5.1980    -3.2590     1.9470 na         1 FTI      -0.149900
     20 C18          3.8360    -3.2070     1.8240 cd         1 FTI      -0.204900
     21 C19          3.3410    -4.2290     2.5480 cc         1 FTI       0.342200
     22 C20          3.0440    -2.2050     1.0270 c3         1 FTI      -0.073100
     23 C21          5.9350    -2.2050    -1.0620 ca         1 FTI      -0.128000
     24 C22          6.4130    -2.6890    -0.1350 ca         1 FTI      -0.079300
     25 C23          7.2760    -3.9160    -0.3150 ca         1 FTI      -0.128000
     26 C24          7.5330    -4.5230    -1.6340 ca         1 FTI      -0.089000
     27 C25          6.7860    -3.7120    -2.7980 ca         1 FTI      -0.033000
     28 C26          6.0440    -2.6140    -2.4170 ca         1 FTI      -0.089000
     29 C27          7.0380    -4.1500    -3.9940 cg         1 FTI       0.218800
     30 N4           7.3640    -4.6150    -5.2890 n1         1 FTI      -0.366800
     31 C28         -0.5240     1.0120     0.9760 cf         1 FTI       0.027100
     32 O1           3.0670    -1.0020     3.0570 o          1 FTI      -0.601100
     33 C29         -1.8770     1.4550     0.8240 ch         1 FTI       0.198500
     34 N5          -2.9550     1.7900     0.6930 n1         1 FTI      -0.351800
     35 HC1A         0.0860     0.1490    -1.0700 hc         1 FTI       0.071200
     36 HC12        -0.2630    -1.0410     0.1450 hc         1 FTI       0.071200
     37 HC2A         1.8120     1.0420    -0.0910 h1         1 FTI       0.079200
     38 HC22         1.9670    -0.8930    -0.4310 h1         1 FTI       0.079200
     39 HC31         2.3310     1.9530     2.0120 h1         1 FTI       0.087200
     40 HC32         2.1260     0.7770     3.1130 h1         1 FTI       0.087200
     41 HC8         -2.0830     5.1710     5.1520 ha         1 FTI       0.136000
     42 HC9         -1.9700     2.2670     5.6650 ha         1 FTI       0.144000
     43 HC10        -1.0410     1.2630     4.7650 ha         1 FTI       0.154000
     44 HC11        -1.5930     6.8210     3.8890 ha         1 FTI       0.138000
     45 HC13         0.9390     3.6700     1.1180 ha         1 FTI       0.129000
     46 HC14        -0.0590     7.5290     1.5670 ha         1 FTI       0.154000
     47 HC15         0.9200     5.8490     0.3850 ha         1 FTI       0.138000
     48 H161         6.0200    -1.2290     1.5030 h1         1 FTI       0.090200
     49 H162         7.3080    -2.4330     1.6640 h1         1 FTI       0.090200
     50 HC17         6.3000    -4.6520     3.3760 h5         1 FTI       0.085100
     51 HC19         2.2610    -4.1680     2.5960 h4         1 FTI       0.045100
     52 H201         1.9830    -2.4010     0.9330 hc         1 FTI       0.082200
     53 H202         3.5170    -1.6540     0.2240 hc         1 FTI       0.082200
     54 HC23         7.7140    -4.5420     0.4530 ha         1 FTI       0.128500
     55 HC24         7.9310    -5.4660    -1.9880 ha         1 FTI       0.159500
     56 HC26         5.8030    -1.8030    -3.0950 ha         1 FTI       0.159500
     57 C16          6.2500    -2.2880     1.4850 c3         1 FTI       0.088600
     58 HC21         5.2860    -1.3390    -1.0180 ha         1 FTI       0.128500
@<TRIPOS>BOND
     1     1     2 1
     2     1    31 1
     3     1    35 1
     4     1    36 1
     5     2     3 1
     6     2    37 1
     7     2    38 1
     8     3     4 1
     9     3    13 1
    10     4     5 1
    11     4    39 1
    12     4    40 1
    13     5     6 1
    14     5    31 2
    15     6     7 ar
    16     6    11 ar
    17     7     8 ar
    18     7    14 ar
    19     8     9 ar
    20     8    12 ar
    21     9    10 ar
    22     9    41 1
    23    10    11 ar
    24    10    42 1
    25    11    43 1
    26    12    15 ar
    27    12    44 1
    28    13    22 1
    29    13    32 2
    30    14    16 ar
    31    14    45 1
    32    15    16 ar
    33    15    46 1
    34    16    47 1
    35    57    19 1
    36    57    24 1
    37    57    48 1
    38    57    49 1
    39    17    18 2
    40    17    21 1
    41    18    19 1
    42    18    50 1
    43    19    20 1
    44    20    21 2
    45    20    22 1
    46    21    51 1
    47    22    52 1
    48    22    53 1
    49    23    24 ar
    50    23    28 ar
    51    23    58 1
    52    24    25 ar
    53    25    26 ar
    54    25    54 1
    55    26    27 ar
    56    26    55 1
    57    27    28 ar
    58    27    29 1
    59    28    56 1
    60    29    30 3
    61    31    33 1
    62    33    34 3
@<TRIPOS>SUBSTRUCTURE
     1 FTI         1 TEMP              0 ****  ****    0 ROOT
