@<TRIPOS>MOLECULE
molecule
   36    38     1     0     0
SMALL
bcc


@<TRIPOS>ATOM
      1 O4           0.0000     0.0000     0.0000 o          1 FTJ      -0.822800
      2 C4           7.8120     7.2080     2.3750 ca         1 FTJ      -0.113000
      3 C3           8.5220     7.7860     3.4260 ca         1 FTJ       0.018400
      4 O3           1.9470     0.0010    -1.0460 o          1 FTJ      -0.822800
      5 C2           8.7090     7.1160     4.5970 ca         1 FTJ      -0.143300
      6 O2           3.4960     0.1180     1.0470 os         1 FTJ      -0.279900
      7 C1           8.1810     5.8240     4.7510 ca         1 FTJ       0.258300
      8 Cl1          9.1770     9.3830     3.2390 cl         1 FTJ      -0.117400
      9 C5           7.2860     5.9570     2.4900 ca         1 FTJ      -0.153300
     10 C6           7.4590     5.2360     3.6830 ca         1 FTJ       0.347300
     11 N1           6.9520     4.0040     3.8240 nb         1 FTJ      -0.709000
     12 N2           8.3500     5.1420     5.8920 nb         1 FTJ      -0.625000
     13 C8           7.8470     3.9370     6.0120 ca         1 FTJ       0.306900
     14 C7           7.1310     3.3520     4.9550 ca         1 FTJ       0.546300
     15 C9           5.8450     1.6120     4.0950 ca         1 FTJ       0.009100
     16 C10          6.4340     1.1710     2.9190 ca         1 FTJ      -0.083500
     17 C11          5.6480     0.6700     1.8990 ca         1 FTJ      -0.200500
     18 C14          4.4680     1.5460     4.2490 ca         1 FTJ      -0.083500
     19 C13          3.6830     1.0470     3.2290 ca         1 FTJ      -0.200500
     20 C12          4.2700     0.6090     2.0510 ca         1 FTJ       0.182100
     21 C15          2.0960     0.0000     1.3060 c3         1 FTJ       0.021100
     22 C17          1.8230    -1.3080     2.0510 c3         1 FTJ      -0.097100
     23 C16          1.3430     0.0000     0.0000 c          1 FTJ       0.898600
     24 H4           6.7360     5.5200     1.6650 ha         1 FTJ       0.166000
     25 H5           7.9850     3.3870     6.9350 h4         1 FTJ       0.040100
     26 H6           7.5130     1.1750     2.8180 ha         1 FTJ       0.127500
     27 H7           6.1090     0.3020     0.9900 ha         1 FTJ       0.152000
     28 H8           4.0120     1.8560     5.1820 ha         1 FTJ       0.127500
     29 H9           2.6050     1.0220     3.3380 ha         1 FTJ       0.152000
     30 H10          1.7690     0.8360     1.9120 h1         1 FTJ       0.038700
     31 H11          1.5910    -2.0880     1.3370 hc         1 FTJ       0.032367
     32 H12          2.7010    -1.5890     2.6200 hc         1 FTJ       0.032367
     33 H13          0.9850    -1.1720     2.7240 hc         1 FTJ       0.032367
     34 H2           7.6760     7.7610     1.4540 ha         1 FTJ       0.147000
     35 O1           6.6190     2.1050     5.0990 os         1 FTJ      -0.345400
     36 H3           9.2640     7.5770     5.4050 ha         1 FTJ       0.156000
@<TRIPOS>BOND
     1    12    13 ar
     2    12     7 ar
     3    13    14 ar
     4     5     7 ar
     5     5     3 ar
     6     7    10 ar
     7    14    35 1
     8    14    11 ar
     9    35    15 1
    10     8     3 1
    11    18    15 ar
    12    18    19 ar
    13     3     2 ar
    14    10    11 ar
    15    10     9 ar
    16    15    16 ar
    17    19    20 ar
    18     2     9 ar
    19    16    17 ar
    20     4    23 1
    21    20    17 ar
    22    20     6 1
    23    23    21 1
    24    23     1 1
    25    21     6 1
    26    21    22 1
    27     2    34 1
    28     5    36 1
    29     9    24 1
    30    13    25 1
    31    16    26 1
    32    17    27 1
    33    18    28 1
    34    19    29 1
    35    21    30 1
    36    22    31 1
    37    22    32 1
    38    22    33 1
@<TRIPOS>SUBSTRUCTURE
     1 FTJ         1 TEMP              0 ****  ****    0 ROOT
