@<TRIPOS>MOLECULE
molecule
   27    27     1     0     0
SMALL
bcc


@<TRIPOS>ATOM
      1 C1           0.0000     0.0000     0.0000 ca         1 FTK      -0.081000
      2 C2           1.3790     0.0000     0.0000 ca         1 FTK      -0.140000
      3 C3           2.0740     0.0000     1.1970 ca         1 FTK      -0.099000
      4 C4           1.3930    -0.0000     2.4010 ca         1 FTK      -0.140000
      5 C5           0.0140    -0.0000     2.4180 ca         1 FTK      -0.081000
      6 C6          -0.6960     0.0060     1.2140 ca         1 FTK      -0.177600
      7 C7          -2.1680     0.0060     1.2220 c          1 FTK       0.568700
      8 O7          -2.7670     0.0010     2.2770 o          1 FTK      -0.475100
      9 C8          -2.9290     0.0120    -0.0770 c3         1 FTK      -0.275400
     10 C9          -4.4090     0.0120     0.2070 c          1 FTK       0.544100
     11 O9          -4.8040     0.0070     1.3480 o          1 FTK      -0.427100
     12 C10         -5.3950     0.0170    -0.9320 c3         1 FTK      -0.274400
     13 C11         -6.7990     0.0150    -0.3820 c          1 FTK       0.509100
     14 O11         -6.9780     0.0100     0.8130 o          1 FTK      -0.394100
     15 C12         -7.9760     0.0200    -1.3220 c3         1 FTK       0.528900
     16 F1          -8.7530    -1.1230    -1.1020 f          1 FTK      -0.213967
     17 F2          -8.7520     1.1610    -1.0920 f          1 FTK      -0.213967
     18 F3          -7.5180     0.0270    -2.6430 f          1 FTK      -0.213967
     19 H1          -0.5430     0.0020    -0.9370 ha         1 FTK       0.141500
     20 H2           1.9190    -0.0020    -0.9390 ha         1 FTK       0.136000
     21 H3           3.1580     0.0000     1.1910 ha         1 FTK       0.134000
     22 H4           1.9440    -0.0020     3.3340 ha         1 FTK       0.136000
     23 H5          -0.5170     0.0020     3.3620 ha         1 FTK       0.141500
     24 H6          -2.6710    -0.8700    -0.6510 hc         1 FTK       0.085700
     25 H7          -2.6700     0.8990    -0.6430 hc         1 FTK       0.085700
     26 H8          -5.2460     0.9040    -1.5350 hc         1 FTK       0.097200
     27 H9          -5.2460    -0.8650    -1.5430 hc         1 FTK       0.097200
@<TRIPOS>BOND
     1    14    13 2
     2    18    15 1
     3    16    15 1
     4    13    15 1
     5    13    12 1
     6     4     5 ar
     7     4     3 ar
     8     5     6 ar
     9     9    10 1
    10     9     7 1
    11    15    17 1
    12    11    10 2
    13    10    12 1
    14     3     2 ar
    15     6     7 1
    16     6     1 ar
    17     7     8 2
    18     2     1 ar
    19     1    19 1
    20     2    20 1
    21     3    21 1
    22     4    22 1
    23     5    23 1
    24     9    24 1
    25     9    25 1
    26    12    26 1
    27    12    27 1
@<TRIPOS>SUBSTRUCTURE
     1 FTK         1 TEMP              0 ****  ****    0 ROOT
