@<TRIPOS>MOLECULE
FTK
   27    27     1     0     0
SMALL
bcc


@<TRIPOS>ATOM
      1 C1         -0.1180    0.5380   -0.0710 ca        1 FTK     -0.079500
      2 C2          1.2680    0.6350    0.0230 ca        1 FTK     -0.141000
      3 C3          1.9410    0.0610    1.1030 ca        1 FTK     -0.094000
      4 C4          1.2240   -0.6190    2.0880 ca        1 FTK     -0.141000
      5 C5         -0.1620   -0.7250    1.9940 ca        1 FTK     -0.079500
      6 C6         -0.8440   -0.1410    0.9160 ca        1 FTK     -0.180600
      7 C7         -2.3130   -0.2720    0.8560 c         1 FTK      0.596700
      8 O7         -2.9170   -1.1360    1.5040 o         1 FTK     -0.538100
      9 C8         -3.0280    0.7030   -0.0410 c3        1 FTK     -0.289400
     10 C9         -4.5040    0.8330    0.2280 c         1 FTK      0.595100
     11 O9         -4.9960    1.8970    0.6010 o         1 FTK     -0.497100
     12 C10        -5.3140   -0.4090   -0.0200 c3        1 FTK     -0.289400
     13 C11        -6.7900   -0.1820    0.0290 c         1 FTK      0.561100
     14 O11        -7.4650   -0.0110    1.0310 o         1 FTK     -0.420100
     15 C12        -7.4940   -0.2270   -1.3750 c3        1 FTK      0.523900
     16 F1         -8.8250    0.0840   -1.3450 f         1 FTK     -0.227300
     17 F2         -6.9430    0.6300   -2.2930 f         1 FTK     -0.227300
     18 F3         -7.4250   -1.4630   -1.9660 f         1 FTK     -0.227300
     19 H1         -0.6340    0.9920   -0.9310 ha        1 FTK      0.145000
     20 H2          1.8340    1.1670   -0.7570 ha        1 FTK      0.141500
     21 H3          3.0360    0.1430    1.1760 ha        1 FTK      0.139000
     22 H4          1.7520   -1.0750    2.9390 ha        1 FTK      0.141500
     23 H5         -0.7360   -1.2680    2.7630 ha        1 FTK      0.145000
     24 H6         -2.5560    1.7180    0.0750 hc        1 FTK      0.100200
     25 H7         -2.8840    0.3720   -1.1060 hc        1 FTK      0.100200
     26 H8         -5.0360   -1.1600    0.7800 hc        1 FTK      0.120700
     27 H9         -5.0300   -0.8460   -1.0150 hc        1 FTK      0.120700
@<TRIPOS>BOND
     1    1    2 ar  
     2    1    6 ar  
     3    1   19 1   
     4    2    3 ar  
     5    2   20 1   
     6    3    4 ar  
     7    3   21 1   
     8    4    5 ar  
     9    4   22 1   
    10    5    6 ar  
    11    5   23 1   
    12    6    7 1   
    13    7    8 2   
    14    7    9 1   
    15    9   10 1   
    16    9   24 1   
    17    9   25 1   
    18   10   11 2   
    19   10   12 1   
    20   12   13 1   
    21   12   26 1   
    22   12   27 1   
    23   13   14 2   
    24   13   15 1   
    25   15   16 1   
    26   15   17 1   
    27   15   18 1   
@<TRIPOS>SUBSTRUCTURE
     1 FTK         1 TEMP              0 ****  ****    0 ROOT
