@<TRIPOS>MOLECULE
molecule
   58    62     1     0     0
SMALL
bcc


@<TRIPOS>ATOM
      1 C8           0.0000     0.0000     0.0000 c3         1 FTL       0.282100
      2 N2           1.4630     0.0000     0.0000 nh         1 FTL      -0.716000
      3 C40          2.1590     0.0000     1.2060 ca         1 FTL       0.231600
      4 C43          3.5500     0.0800     1.2040 ca         1 FTL      -0.213000
      5 C44          4.2490     0.0790     2.3890 ca         1 FTL      -0.045000
      6 C45          3.5640     0.0010     3.6040 ca         1 FTL      -0.072000
      7 C46          2.1580    -0.0790     3.6090 cp         1 FTL       0.050000
      8 C47          1.4640    -0.0740     2.4040 ca         1 FTL      -0.212000
      9 C51          1.4220    -0.1640     4.8900 cp         1 FTL      -0.045000
     10 C52          1.5410     0.8670     5.8520 ca         1 FTL      -0.017000
     11 C53          0.8210     0.7650     7.0680 ca         1 FTL      -0.034000
     12 C54          0.0150    -0.3610     7.3040 ca         1 FTL      -0.104000
     13 C55         -0.0770    -1.3440     6.3650 ca         1 FTL      -0.134000
     14 C56          0.6170    -1.2570     5.1630 ca         1 FTL      -0.109000
     15 C65          4.2890     0.0010     4.8400 cg         1 FTL       0.247800
     16 C7           0.9320     1.7920     8.0220 ca         1 FTL      -0.116000
     17 N1           4.8660    -0.0180     5.8180 n1         1 FTL      -0.370800
     18 C2           2.3390     1.9940     5.6180 ca         1 FTL      -0.117000
     19 C3           1.7220     2.8690     7.7610 ca         1 FTL      -0.122000
     20 C4           2.4240     2.9700     6.5630 ca         1 FTL      -0.117000
     21 N3           3.6960     3.0400    -2.0020 nc         1 FTL      -0.909000
     22 C10          3.8810     2.0140    -1.3050 cc         1 FTL       0.509200
     23 C12          2.7160     1.4380    -1.6500 cd         1 FTL      -0.397900
     24 N4           2.0770     2.3670    -2.5540 na         1 FTL      -0.122900
     25 C5           2.7150     3.3120    -2.7270 cd         1 FTL       0.543400
     26 C15          0.9580     1.8040    -3.3980 c3         1 FTL      -0.020400
     27 C16         -0.8360    -2.1440     0.9860 ca         1 FTL      -0.098000
     28 C11         -0.5030    -1.4140    -0.1410 ca         1 FTL      -0.112300
     29 C13         -0.6340    -1.9760    -1.3940 ca         1 FTL      -0.085000
     30 C14         -1.0960    -3.2880    -1.5230 ca         1 FTL       0.015000
     31 C17         -1.4300    -4.0180    -0.3810 ca         1 FTL      -0.101000
     32 C6          -1.2990    -3.4410     0.8660 ca         1 FTL      -0.127000
     33 C9          -1.4720    -4.0460    -2.8210 cg         1 FTL       0.216800
     34 N5          -1.8200    -4.3290    -3.9300 n1         1 FTL      -0.363800
     35 C18          2.1960     0.0000    -1.2680 c3         1 FTL       0.327100
     36 HC81        -0.3610     0.4570     0.9130 h1         1 FTL       0.062700
     37 HC82        -0.3610     0.5630    -0.8520 h1         1 FTL       0.062700
     38 HC43         4.0860     0.1770     0.2670 ha         1 FTL       0.142000
     39 HC44         5.3300     0.1410     2.3800 ha         1 FTL       0.143000
     40 HC47         0.3810    -0.0960     2.4010 ha         1 FTL       0.141000
     41 HC54        -0.5390    -0.4470     8.2310 ha         1 FTL       0.133000
     42 HC55        -0.7000    -2.2120     6.5480 ha         1 FTL       0.129000
     43 HC56         0.4670    -2.0220     4.4100 ha         1 FTL       0.129000
     44 HC7          0.3860     1.7260     8.9550 ha         1 FTL       0.133000
     45 HC2          2.8500     2.1070     4.6690 ha         1 FTL       0.143000
     46 HC3          1.8120     3.6640     8.4920 ha         1 FTL       0.129000
     47 HC4          3.0400     3.8430     6.3850 ha         1 FTL       0.131000
     48 HC5          2.5180     4.1850    -3.3360 h5         1 FTL       0.069100
     49 H151         1.2480     0.8330    -3.7820 h1         1 FTL       0.055367
     50 H152         0.0660     1.7010    -2.7930 h1         1 FTL       0.055367
     51 H153         0.7580     2.4740    -4.2260 h1         1 FTL       0.055367
     52 HC16        -0.6410    -1.7380     1.9710 ha         1 FTL       0.142000
     53 HC13        -0.2810    -1.4400    -2.2670 ha         1 FTL       0.136000
     54 HC17        -1.7890    -5.0360    -0.4750 ha         1 FTL       0.147000
     55 HC6         -1.5580    -4.0080     1.7520 ha         1 FTL       0.142000
     56 H181         3.0400    -0.6750    -1.1850 h1         1 FTL       0.056700
     57 H182         1.5390    -0.3550    -2.0530 h1         1 FTL       0.056700
     58 HC10         4.6970     1.6960    -0.6680 h4         1 FTL       0.060100
@<TRIPOS>BOND
     1     1     2 1
     2     1    28 1
     3     1    36 1
     4     1    37 1
     5     2     3 1
     6     2    35 1
     7     3     4 ar
     8     3     8 ar
     9     4     5 ar
    10     4    38 1
    11     5     6 ar
    12     5    39 1
    13     6     7 ar
    14     6    15 1
    15     7     8 ar
    16     7     9 1
    17     8    40 1
    18     9    10 ar
    19     9    14 ar
    20    10    11 ar
    21    10    18 ar
    22    11    12 ar
    23    11    16 ar
    24    12    13 ar
    25    12    41 1
    26    13    14 ar
    27    13    42 1
    28    14    43 1
    29    15    17 3
    30    16    19 ar
    31    16    44 1
    32    18    20 ar
    33    18    45 1
    34    19    20 ar
    35    19    46 1
    36    20    47 1
    37    21    22 1
    38    21    25 2
    39    22    23 2
    40    22    58 1
    41    23    24 1
    42    23    35 1
    43    24    25 1
    44    24    26 1
    45    25    48 1
    46    26    49 1
    47    26    50 1
    48    26    51 1
    49    27    28 ar
    50    27    32 ar
    51    27    52 1
    52    28    29 ar
    53    29    30 ar
    54    29    53 1
    55    30    31 ar
    56    30    33 1
    57    31    32 ar
    58    31    54 1
    59    32    55 1
    60    33    34 3
    61    35    56 1
    62    35    57 1
@<TRIPOS>SUBSTRUCTURE
     1 FTL         1 TEMP              0 ****  ****    0 ROOT
