@<TRIPOS>MOLECULE
FTM
   10     9     1     0     0
SMALL
bcc


@<TRIPOS>ATOM
      1 F            0.0000     0.0000     0.0000 f          1 FTM      -0.155300
      2 C2           1.3990     0.0000     0.0000 c3         1 FTM       0.184900
      3 C1           1.9020     0.0000     1.4210 c          1 FTM       0.259100
      4 O            1.1150     0.0000     2.3420 o          1 FTM      -0.346100
      5 N            3.2270    -0.0000     1.6660 nz         1 FTM       0.205600
      6 H1           1.7600     0.8840    -0.5110 h1         1 FTM       0.050700
      7 H2           1.7600    -0.8840    -0.5110 h1         1 FTM       0.050700
      8 H3           3.3840    -0.0000     2.6540 hn         1 FTM       0.249800
      9 H4           3.6410    -0.8170     1.2630 hn         1 FTM       0.249800
     10 HN3          3.6410     0.8170     1.2630 hn         1 FTM       0.249800
@<TRIPOS>BOND
     1     1     2 1   
     2     2     3 1   
     3     2     6 1   
     4     2     7 1   
     5     3     4 2   
     6     3     5 1   
     7     5     8 1   
     8     5     9 1   
     9     5    10 1   
@<TRIPOS>SUBSTRUCTURE
     1 FTM         1 TEMP              0 ****  ****    0 ROOT
