@<TRIPOS>MOLECULE
FTN
   39    40     1     0     0
SMALL
bcc


@<TRIPOS>ATOM
      1 N            0.0000     0.0000     0.0000 ns         1 FTN      -0.026100
      2 F1           5.6160    -0.0160    -0.2400 f          1 FTN      -0.205300
      3 O1           1.9550     0.0780     1.0500 o          1 FTN      -0.614100
      4 C2           3.4830    -0.0940    -1.2790 ca         1 FTN      -0.143300
      5 F2           3.9060    -1.0820     0.8370 f          1 FTN      -0.205300
      6 O2          -0.4050     1.3700     4.5730 os         1 FTN      -0.293900
      7 C3           2.0870    -0.0940    -1.2760 ca         1 FTN      -0.097600
      8 F3           3.9050     1.1960     0.6680 f          1 FTN      -0.205300
      9 C4           1.3930    -0.1850    -2.4840 ca         1 FTN      -0.093000
     10 C5           2.0890    -0.2730    -3.6720 ca         1 FTN      -0.076000
     11 C6           3.4730    -0.2720    -3.6670 ca         1 FTN      -0.084000
     12 C7           4.1670    -0.1770    -2.4750 ca         1 FTN      -0.057000
     13 C8           1.3480     0.0000     0.0000 c          1 FTN       0.570700
     14 C9          -0.7000     0.0000     1.2110 ca         1 FTN      -0.058400
     15 C10         -0.1980     0.6930     2.3030 ca         1 FTN      -0.138000
     16 C11         -0.8950     0.6920     3.5020 ca         1 FTN       0.174100
     17 C12         -2.0910    -0.0020     3.6070 ca         1 FTN      -0.230000
     18 C13         -2.5900    -0.6920     2.5180 ca         1 FTN      -0.039000
     19 C14         -1.9010    -0.6890     1.3210 ca         1 FTN      -0.176000
     20 C15         -1.1240     1.2460     5.8030 c3         1 FTN       0.159100
     21 C16         -0.6780    -0.0260     6.5270 c3         1 FTN      -0.016100
     22 C17         -0.8380     2.4630     6.6850 c3         1 FTN      -0.016100
     23 HN          -0.5000     0.0300    -0.8660 hn         1 FTN       0.170500
     24 H4           0.3100    -0.1850    -2.4880 ha         1 FTN       0.108000
     25 H5           1.5510    -0.3450    -4.6090 ha         1 FTN       0.108000
     26 H6           4.0150    -0.3390    -4.6030 ha         1 FTN       0.111000
     27 H7           5.2500    -0.1770    -2.4780 ha         1 FTN       0.126000
     28 H10          0.6930     1.3000     2.1960 ha         1 FTN       0.155000
     29 H12         -2.6330    -0.0060     4.5440 ha         1 FTN       0.126000
     30 H13         -3.5250    -1.2320     2.6030 ha         1 FTN       0.100000
     31 H14         -2.2940    -1.2310     0.4690 ha         1 FTN       0.105000
     32 H15         -2.1860     1.1910     5.5970 h1         1 FTN       0.019700
     33 H16         -1.0650    -0.0200     7.5390 hc         1 FTN       0.013367
     34 H16A         0.4040    -0.0660     6.5540 hc         1 FTN       0.013367
     35 H16B        -1.0590    -0.8930     6.0000 hc         1 FTN       0.013367
     36 H17         -1.4270     2.3980     7.5920 hc         1 FTN       0.013367
     37 H17A        -1.0990     3.3670     6.1490 hc         1 FTN       0.013367
     38 H17B         0.2150     2.4860     6.9390 hc         1 FTN       0.013367
     39 C1           4.2410     0.0030     0.0200 c3         1 FTN       0.659200
@<TRIPOS>BOND
     1     1    13 1   
     2     1    14 1   
     3     1    23 1   
     4     2    39 1   
     5     3    13 2   
     6     4     7 ar  
     7     4    12 ar  
     8     4    39 1   
     9     5    39 1   
    10     6    16 1   
    11     6    20 1   
    12     7     9 ar  
    13     7    13 1   
    14     8    39 1   
    15     9    10 ar  
    16     9    24 1   
    17    10    11 ar  
    18    10    25 1   
    19    11    12 ar  
    20    11    26 1   
    21    12    27 1   
    22    14    15 ar  
    23    14    19 ar  
    24    15    16 ar  
    25    15    28 1   
    26    16    17 ar  
    27    17    18 ar  
    28    17    29 1   
    29    18    19 ar  
    30    18    30 1   
    31    19    31 1   
    32    20    21 1   
    33    20    22 1   
    34    20    32 1   
    35    21    33 1   
    36    21    34 1   
    37    21    35 1   
    38    22    36 1   
    39    22    37 1   
    40    22    38 1   
@<TRIPOS>SUBSTRUCTURE
     1 FTN         1 TEMP              0 ****  ****    0 ROOT
