@<TRIPOS>MOLECULE
FTS
   38    39     1     0     0
SMALL
bcc


@<TRIPOS>ATOM
      1 C7           0.0000     0.0000     0.0000 ca         1 FTS       0.014000
      2 C8           1.3860     0.0000     0.0000 ca         1 FTS      -0.115300
      3 C1           2.1030     0.0000     1.3250 c3         1 FTS       0.214100
      4 N1           3.5000    -0.4100     1.1520 n7         1 FTS      -0.576200
      5 C2           4.1460     0.4050     0.1120 c3         1 FTS       0.079500
      6 C10          5.6560     0.1620     0.1310 c3         1 FTS       0.208900
      7 F4           6.1710     0.5150     1.3830 f          1 FTS      -0.232300
      8 C3           3.5770    -0.0030    -1.2470 c3         1 FTS       0.035900
      9 C9           2.0700     0.0030    -1.1970 ca         1 FTS      -0.016300
     10 C4           1.3680     0.0100    -2.3920 ca         1 FTS      -0.132000
     11 C5          -0.0120     0.0100    -2.3910 ca         1 FTS       0.001000
     12 C6          -0.6990     0.0040    -1.1910 ca         1 FTS      -0.164500
     13 S1          -2.4600     0.0020    -1.1820 sy         1 FTS       1.046200
     14 O1          -2.8670    -0.5380    -2.4320 o          1 FTS      -0.582300
     15 O2          -2.8540    -0.5480     0.0680 o          1 FTS      -0.582300
     16 N2          -2.9530     1.5830    -1.1710 n7         1 FTS      -0.587100
     17 C11         -2.6650     2.4460    -2.3200 c3         1 FTS       0.226800
     18 C12         -3.5250     3.7090    -2.2360 c3         1 FTS      -0.101400
     19 C13         -3.2240     4.6120    -3.4350 c3         1 FTS       0.572900
     20 F1          -3.5160     3.9260    -4.6190 f          1 FTS      -0.205967
     21 F2          -4.0110     5.7660    -3.3580 f          1 FTS      -0.205967
     22 F3          -1.8720     4.9670    -3.4220 f          1 FTS      -0.205967
     23 H7          -0.5380    -0.0050     0.9400 ha         1 FTS       0.124000
     24 H11          2.0740     0.9980     1.7460 h1         1 FTS       0.016700
     25 H12          1.6090    -0.6910     1.9970 h1         1 FTS       0.016700
     26 HN1          3.9910    -0.2970     2.0180 hn         1 FTS       0.269800
     27 H2           3.9390     1.4530     0.2920 h1         1 FTS       0.022700
     28 H101         6.1280     0.7630    -0.6370 h1         1 FTS       0.019700
     29 H102         5.8550    -0.8860    -0.0580 h1         1 FTS       0.019700
     30 H31          3.9020     0.7160    -1.9900 hc         1 FTS       0.034200
     31 H32          3.9130    -1.0060    -1.4770 hc         1 FTS       0.034200
     32 H4           1.9060     0.0150    -3.3330 ha         1 FTS       0.113000
     33 H5          -0.5560     0.0130    -3.3280 ha         1 FTS       0.123000
     34 HN2         -3.4800     1.9370    -0.3980 hn         1 FTS       0.351800
     35 H111        -2.8910     1.9160    -3.2370 h1         1 FTS       0.028700
     36 H112        -1.6170     2.7210    -2.3110 h1         1 FTS       0.028700
     37 H121        -3.2980     4.2400    -1.3190 hc         1 FTS       0.054700
     38 H122        -4.5720     3.4340    -2.2450 hc         1 FTS       0.054700
@<TRIPOS>BOND
     1     1     2 ar  
     2     1    12 ar  
     3     1    23 1   
     4     2     3 1   
     5     2     9 ar  
     6     3     4 1   
     7     3    24 1   
     8     3    25 1   
     9     4     5 1   
    10     4    26 1   
    11     5     6 1   
    12     5     8 1   
    13     5    27 1   
    14     6     7 1   
    15     6    28 1   
    16     6    29 1   
    17     8     9 1   
    18     8    30 1   
    19     8    31 1   
    20     9    10 ar  
    21    10    11 ar  
    22    10    32 1   
    23    11    12 ar  
    24    11    33 1   
    25    12    13 1   
    26    13    14 2   
    27    13    15 2   
    28    13    16 1   
    29    16    17 1   
    30    16    34 1   
    31    17    18 1   
    32    17    35 1   
    33    17    36 1   
    34    18    19 1   
    35    18    37 1   
    36    18    38 1   
    37    19    20 1   
    38    19    21 1   
    39    19    22 1   
@<TRIPOS>SUBSTRUCTURE
     1 FTS         1 TEMP              0 ****  ****    0 ROOT
