@<TRIPOS>MOLECULE
FTT
   44    43     1     0     0
SMALL
bcc


@<TRIPOS>ATOM
      1 C1         -0.0660   -0.0560    0.0180 c         1 FTT      0.908600
      2 C2          1.4670    0.0420    0.0620 c3        1 FTT     -0.233400
      3 C3          1.9960    0.0320    1.4880 c3        1 FTT      0.172100
      4 C4          3.5220   -0.0750    1.5040 c3        1 FTT     -0.079400
      5 C5          4.0470   -0.2860    2.9060 c3        1 FTT     -0.077400
      6 C6          5.5600   -0.3310    2.9310 c3        1 FTT     -0.077400
      7 C7          6.0820   -0.5510    4.3350 c3        1 FTT     -0.078400
      8 C8          7.5950   -0.5920    4.3620 c3        1 FTT     -0.078400
      9 C9          8.1160   -0.8120    5.7660 c3        1 FTT     -0.079400
     10 C10         9.6290   -0.8540    5.7930 c3        1 FTT     -0.078400
     11 C11        10.1490   -1.0730    7.1970 c3        1 FTT     -0.079400
     12 C12        11.6610   -1.1170    7.2230 c3        1 FTT     -0.079400
     13 C13        12.1830   -1.3340    8.6280 c3        1 FTT     -0.080400
     14 C14        13.6890   -1.3790    8.6590 c3        1 FTT     -0.092100
     15 O2         -0.7340    0.6160    0.8630 o         1 FTT     -0.849300
     16 O3          1.6570    1.2220    2.1870 oh        1 FTT     -0.658800
     17 O1         -0.5900   -0.7860   -0.8670 o         1 FTT     -0.849300
     18 H21         1.7670    0.9950   -0.4420 hc        1 FTT      0.033700
     19 H22         1.9050   -0.8140   -0.5090 hc        1 FTT      0.033700
     20 H3          1.5530   -0.8440    2.0430 h1        1 FTT      0.024700
     21 H41         3.9570    0.8640    1.0750 hc        1 FTT      0.033700
     22 H42         3.8280   -0.9300    0.8480 hc        1 FTT      0.033700
     23 H51         3.6760    0.5460    3.5610 hc        1 FTT      0.045200
     24 H52         3.6350   -1.2440    3.3220 hc        1 FTT      0.045200
     25 H61         5.9700    0.6310    2.5250 hc        1 FTT      0.032200
     26 H62         5.9240   -1.1540    2.2610 hc        1 FTT      0.032200
     27 H71         5.6720   -1.5140    4.7410 hc        1 FTT      0.038200
     28 H72         5.7150    0.2710    5.0040 hc        1 FTT      0.038200
     29 H81         8.0040    0.3700    3.9550 hc        1 FTT      0.036200
     30 H82         7.9600   -1.4150    3.6920 hc        1 FTT      0.036200
     31 H91         7.7050   -1.7740    6.1730 hc        1 FTT      0.038200
     32 H92         7.7510    0.0110    6.4350 hc        1 FTT      0.038200
     33 H101        9.9930   -1.6780    5.1240 hc        1 FTT      0.037700
     34 H102       10.0390    0.1070    5.3850 hc        1 FTT      0.037700
     35 H111        9.7850   -0.2480    7.8650 hc        1 FTT      0.038700
     36 H112        9.7370   -2.0340    7.6050 hc        1 FTT      0.038700
     37 H121       12.0730   -0.1560    6.8150 hc        1 FTT      0.038700
     38 H122       12.0250   -1.9420    6.5560 hc        1 FTT      0.038700
     39 H131       11.8170   -0.5080    9.2940 hc        1 FTT      0.037700
     40 H132       11.7690   -2.2940    9.0360 hc        1 FTT      0.037700
     41 H141       14.0520   -1.5400    9.7030 hc        1 FTT      0.030367
     42 H142       14.1200   -0.4220    8.2790 hc        1 FTT      0.030367
     43 H143       14.0710   -2.2120    8.0200 hc        1 FTT      0.030367
     44 HO3         0.7130    1.3850    2.0050 ho        1 FTT      0.455000
@<TRIPOS>BOND
     1    1    2 1   
     2    1   15 1   
     3    1   17 1   
     4    2    3 1   
     5    2   18 1   
     6    2   19 1   
     7    3    4 1   
     8    3   16 1   
     9    3   20 1   
    10    4    5 1   
    11    4   21 1   
    12    4   22 1   
    13    5    6 1   
    14    5   23 1   
    15    5   24 1   
    16    6    7 1   
    17    6   25 1   
    18    6   26 1   
    19    7    8 1   
    20    7   27 1   
    21    7   28 1   
    22    8    9 1   
    23    8   29 1   
    24    8   30 1   
    25    9   10 1   
    26    9   31 1   
    27    9   32 1   
    28   10   11 1   
    29   10   33 1   
    30   10   34 1   
    31   11   12 1   
    32   11   35 1   
    33   11   36 1   
    34   12   13 1   
    35   12   37 1   
    36   12   38 1   
    37   13   14 1   
    38   13   39 1   
    39   13   40 1   
    40   14   41 1   
    41   14   42 1   
    42   14   43 1   
    43   16   44 1   
@<TRIPOS>SUBSTRUCTURE
     1 FTT         1 TEMP              0 ****  ****    0 ROOT
