@<TRIPOS>MOLECULE
molecule
   44    43     1     0     0
SMALL
bcc


@<TRIPOS>ATOM
      1 C1           0.0000     0.0000     0.0000 c          1 FTT       0.898600
      2 C2           1.5060     0.0000     0.0000 c3         1 FTT      -0.193400
      3 C3           2.0160     0.0000     1.4430 c3         1 FTT       0.165100
      4 C4           3.5410    -0.1250     1.4460 c3         1 FTT      -0.100400
      5 C5           4.0400    -0.2500     2.8870 c3         1 FTT      -0.082400
      6 C6           5.5650    -0.3760     2.8890 c3         1 FTT      -0.082400
      7 C7           6.0640    -0.5010     4.3300 c3         1 FTT      -0.082400
      8 C8           7.5880    -0.6270     4.3320 c3         1 FTT      -0.082400
      9 C9           8.0880    -0.7530     5.7730 c3         1 FTT      -0.082400
     10 C10          9.6130    -0.8780     5.7760 c3         1 FTT      -0.082400
     11 C11         10.1110    -1.0030     7.2160 c3         1 FTT      -0.082400
     12 C12         11.6370    -1.1280     7.2180 c3         1 FTT      -0.082400
     13 C13         12.1360    -1.2540     8.6600 c3         1 FTT      -0.084400
     14 C14         13.6610    -1.3800     8.6620 c3         1 FTT      -0.092100
     15 O2          -0.6050    -0.0000     1.0460 o          1 FTT      -0.858800
     16 O3           1.6370     1.2210     2.0820 oh         1 FTT      -0.608800
     17 O1          -0.6700     0.0050    -1.1630 o          1 FTT      -0.858800
     18 H21          1.8680     0.8850    -0.5110 hc         1 FTT       0.036700
     19 H22          1.8680    -0.8850    -0.5110 hc         1 FTT       0.036700
     20 H3           1.5840    -0.8370     1.9780 h1         1 FTT       0.037700
     21 H41          3.9760     0.7540     0.9870 hc         1 FTT       0.038700
     22 H42          3.8320    -1.0060     0.8850 hc         1 FTT       0.038700
     23 H51          3.6050    -1.1300     3.3450 hc         1 FTT       0.040200
     24 H52          3.7500     0.6300     3.4470 hc         1 FTT       0.040200
     25 H61          5.8560    -1.2560     2.3280 hc         1 FTT       0.036700
     26 H62          6.0010     0.5040     2.4310 hc         1 FTT       0.036700
     27 H71          5.7730     0.3790     4.8900 hc         1 FTT       0.039700
     28 H72          5.6280    -1.3820     4.7870 hc         1 FTT       0.039700
     29 H81          8.0240     0.2530     3.8750 hc         1 FTT       0.038700
     30 H82          7.8790    -1.5060     3.7710 hc         1 FTT       0.038700
     31 H91          7.6530    -1.6330     6.2300 hc         1 FTT       0.039700
     32 H92          7.7970     0.1270     6.3340 hc         1 FTT       0.039700
     33 H101         9.9040    -1.7580     5.2150 hc         1 FTT       0.039700
     34 H102        10.0480     0.0020     5.3180 hc         1 FTT       0.039700
     35 H111         9.8210    -0.1220     7.7770 hc         1 FTT       0.040700
     36 H112         9.6760    -1.8830     7.6740 hc         1 FTT       0.040700
     37 H121        11.9270    -2.0080     6.6570 hc         1 FTT       0.040200
     38 H122        12.0720    -0.2480     6.7610 hc         1 FTT       0.040200
     39 H131        11.7000    -2.1340     9.1170 hc         1 FTT       0.039700
     40 H132        11.8450    -0.3740     9.2210 hc         1 FTT       0.039700
     41 H141        13.9520    -2.2600     8.1010 hc         1 FTT       0.030367
     42 H142        14.0960    -0.5000     8.2040 hc         1 FTT       0.030367
     43 H143        14.0150    -1.4690     9.6820 hc         1 FTT       0.030367
     44 HO3          1.0990     1.0290     2.8320 ho         1 FTT       0.401000
@<TRIPOS>BOND
     1     1     2 1
     2     1    15 1
     3     1    17 1
     4     2     3 1
     5     2    18 1
     6     2    19 1
     7     3     4 1
     8     3    16 1
     9     3    20 1
    10     4     5 1
    11     4    21 1
    12     4    22 1
    13     5     6 1
    14     5    23 1
    15     5    24 1
    16     6     7 1
    17     6    25 1
    18     6    26 1
    19     7     8 1
    20     7    27 1
    21     7    28 1
    22     8     9 1
    23     8    29 1
    24     8    30 1
    25     9    10 1
    26     9    31 1
    27     9    32 1
    28    10    11 1
    29    10    33 1
    30    10    34 1
    31    11    12 1
    32    11    35 1
    33    11    36 1
    34    12    13 1
    35    12    37 1
    36    12    38 1
    37    13    14 1
    38    13    39 1
    39    13    40 1
    40    14    41 1
    41    14    42 1
    42    14    43 1
    43    16    44 1
@<TRIPOS>SUBSTRUCTURE
     1 FTT         1 TEMP              0 ****  ****    0 ROOT
