@<TRIPOS>MOLECULE
FTU
   33    35     1     0     0
SMALL
bcc


@<TRIPOS>ATOM
      1 F            0.0000     0.0000     0.0000 f          1 FTU      -0.135500
      2 C6           1.3520     0.0000     0.0000 cc         1 FTU       0.100300
      3 C5           2.1530     0.0000     1.0790 cd         1 FTU      -0.269100
      4 C7           2.2240    -0.0070    -1.1740 ca         1 FTU      -0.373400
      5 C10          3.5430    -0.0050    -0.6850 ca         1 FTU       0.293800
      6 N3           4.5470    -0.0120    -1.5600 nb         1 FTU      -0.620000
      7 C9           4.3100    -0.0180    -2.8540 ca         1 FTU       0.648900
      8 N2           3.0880    -0.0200    -3.3560 nb         1 FTU      -0.673000
      9 C8           2.0210    -0.0160    -2.5620 ca         1 FTU       0.604200
     10 N1           0.7430    -0.0180    -3.0910 nv         1 FTU      -0.652500
     11 N            3.4680    -0.0010     0.6810 na         1 FTU       0.311900
     12 C4           4.6200     0.0000     1.5860 c3         1 FTU       0.144800
     13 C3           5.1270     1.4460     1.8220 c3         1 FTU       0.129100
     14 O1           6.0520     1.8340     0.8040 oh         1 FTU      -0.536800
     15 C2           5.8360     1.3210     3.1930 c3         1 FTU       0.128100
     16 O2           7.2440     1.1590     3.0160 oh         1 FTU      -0.547800
     17 O            4.2310    -0.4390     2.9050 os         1 FTU      -0.383600
     18 C1           5.2210     0.0550     3.8220 c3         1 FTU       0.151100
     19 C            4.5640     0.4040     5.1590 c3         1 FTU       0.219400
     20 O3           4.0850    -0.7900     5.7800 oh         1 FTU      -0.577800
     21 H1           1.8130     0.0010     2.1070 h4         1 FTU       0.166000
     22 H2           5.1520    -0.0220    -3.5360 h5         1 FTU      -0.001900
     23 H3           0.2900     0.8470    -3.3070 hn         1 FTU       0.282800
     24 H4           0.2890    -0.8860    -3.2970 hn         1 FTU       0.282800
     25 H5           5.4170    -0.6230     1.1990 h2         1 FTU       0.072700
     26 H6           4.2960     2.1380     1.8820 h1         1 FTU       0.021700
     27 H7           6.0030     2.7670     0.6740 ho         1 FTU       0.389000
     28 H8           5.6230     2.1880     3.8070 h1         1 FTU       0.010700
     29 H9           7.7030     1.7700     3.5670 ho         1 FTU       0.389000
     30 H10          5.9910    -0.6930     3.9680 h1         1 FTU       0.052700
     31 H11          5.2910     0.8810     5.8050 h1         1 FTU      -0.009300
     32 H12          3.7340     1.0800     4.9880 h1         1 FTU      -0.009300
     33 H13          3.7780    -0.5900     6.6490 ho         1 FTU       0.391000
@<TRIPOS>BOND
     1     1     2 1   
     2     2     3 2   
     3     2     4 1   
     4     3    11 1   
     5     3    21 1   
     6     4     5 ar  
     7     4     9 ar  
     8     5     6 ar  
     9     5    11 1   
    10     6     7 ar  
    11     7     8 ar  
    12     7    22 1   
    13     8     9 ar  
    14     9    10 1   
    15    10    23 1   
    16    10    24 1   
    17    11    12 1   
    18    12    13 1   
    19    12    17 1   
    20    12    25 1   
    21    13    14 1   
    22    13    15 1   
    23    13    26 1   
    24    14    27 1   
    25    15    16 1   
    26    15    18 1   
    27    15    28 1   
    28    16    29 1   
    29    17    18 1   
    30    18    19 1   
    31    18    30 1   
    32    19    20 1   
    33    19    31 1   
    34    19    32 1   
    35    20    33 1   
@<TRIPOS>SUBSTRUCTURE
     1 FTU         1 TEMP              0 ****  ****    0 ROOT
