@<TRIPOS>MOLECULE
molecule
   33    35     1     0     0
SMALL
bcc


@<TRIPOS>ATOM
      1 F            0.0000     0.0000     0.0000 f          1 FTU      -0.146500
      2 C6           1.3520     0.0000     0.0000 cc         1 FTU       0.103300
      3 C5           2.1530     0.0000     1.0790 cd         1 FTU      -0.120100
      4 C7           2.2240    -0.0070    -1.1740 ca         1 FTU      -0.379400
      5 C10          3.5430    -0.0050    -0.6850 ca         1 FTU       0.517800
      6 N3           4.5470    -0.0120    -1.5600 nb         1 FTU      -0.753000
      7 C9           4.3100    -0.0180    -2.8540 ca         1 FTU       0.712900
      8 N2           3.0880    -0.0200    -3.3560 nb         1 FTU      -0.785000
      9 C8           2.0210    -0.0160    -2.5620 ca         1 FTU       0.772200
     10 N1           0.7430    -0.0180    -3.0910 nv         1 FTU      -1.078500
     11 N            3.4680    -0.0010     0.6810 na         1 FTU      -0.162100
     12 C4           4.6200     0.0000     1.5860 c3         1 FTU       0.263800
     13 C3           5.1270     1.4460     1.8220 c3         1 FTU       0.094100
     14 O1           6.0520     1.8340     0.8040 oh         1 FTU      -0.555800
     15 C2           5.8360     1.3210     3.1930 c3         1 FTU       0.085100
     16 O2           7.2440     1.1590     3.0160 oh         1 FTU      -0.568800
     17 O            4.2310    -0.4390     2.9050 os         1 FTU      -0.398600
     18 C1           5.2210     0.0550     3.8220 c3         1 FTU       0.125100
     19 C            4.5640     0.4040     5.1590 c3         1 FTU       0.141400
     20 O3           4.0850    -0.7900     5.7800 oh         1 FTU      -0.592800
     21 H1           1.8130     0.0010     2.1070 h4         1 FTU       0.194000
     22 H2           5.1520    -0.0220    -3.5360 h5         1 FTU       0.062100
     23 H3           0.2900     0.8470    -3.3070 hn         1 FTU       0.443800
     24 H4           0.2890    -0.8860    -3.2970 hn         1 FTU       0.443800
     25 H5           5.4170    -0.6230     1.1990 h2         1 FTU       0.114700
     26 H6           4.2960     2.1380     1.8820 h1         1 FTU       0.059700
     27 H7           6.0030     2.7670     0.6740 ho         1 FTU       0.405000
     28 H8           5.6230     2.1880     3.8070 h1         1 FTU       0.044700
     29 H9           7.7030     1.7700     3.5670 ho         1 FTU       0.405000
     30 H10          5.9910    -0.6930     3.9680 h1         1 FTU       0.089700
     31 H11          5.2910     0.8810     5.8050 h1         1 FTU       0.028200
     32 H12          3.7340     1.0800     4.9880 h1         1 FTU       0.028200
     33 H13          3.7780    -0.5900     6.6490 ho         1 FTU       0.405000
@<TRIPOS>BOND
     1    20    19 1
     2    19    18 1
     3     1     2 1
     4     3     2 2
     5     3    11 1
     6     2     4 1
     7    18    17 1
     8    18    15 1
     9    17    12 1
    10    11    12 1
    11    11     5 1
    12    15    16 1
    13    15    13 1
    14     4     9 ar
    15     4     5 ar
    16    10     9 1
    17    12    13 1
    18     9     8 ar
    19     5     6 ar
    20    13    14 1
    21     8     7 ar
    22     6     7 ar
    23     3    21 1
    24     7    22 1
    25    10    23 1
    26    10    24 1
    27    12    25 1
    28    13    26 1
    29    14    27 1
    30    15    28 1
    31    16    29 1
    32    18    30 1
    33    19    31 1
    34    19    32 1
    35    20    33 1
@<TRIPOS>SUBSTRUCTURE
     1 FTU         1 TEMP              0 ****  ****    0 ROOT
