@<TRIPOS>MOLECULE
molecule
   21    21     1     0     0
SMALL
bcc


@<TRIPOS>ATOM
      1 Cl1          0.0000     0.0000     0.0000 cl         1 FTV      -0.090400
      2 C4           1.7360     0.0000     0.0000 ca         1 FTV      -0.014600
      3 C7           2.4280     0.0000     1.1980 ca         1 FTV      -0.089000
      4 C9           3.8110     0.0010     1.1980 ca         1 FTV      -0.030600
      5 Cl2          4.6780     0.0010     2.7020 cl         1 FTV      -0.143400
      6 C8           4.5060     0.0010     0.0010 ca         1 FTV      -0.086000
      7 C5           3.8180     0.0020    -1.1980 ca         1 FTV      -0.218000
      8 C2           2.4320    -0.0050    -1.2010 ca         1 FTV       0.181100
      9 O1           1.7530    -0.0110    -2.3790 os         1 FTV      -0.265900
     10 C1           2.5300    -0.1320    -3.5740 c3         1 FTV       0.019100
     11 C3           3.0240     1.2520    -4.0020 c3         1 FTV      -0.101100
     12 C6           1.6780    -0.7220    -4.6680 c          1 FTV       0.898600
     13 O3           2.2260    -1.0210    -5.8560 o          1 FTV      -0.819800
     14 O2           0.5040    -0.9270    -4.4750 o          1 FTV      -0.819800
     15 H1           1.8860     0.0000     2.1360 ha         1 FTV       0.143000
     16 H2           5.5890     0.0040     0.0040 ha         1 FTV       0.133000
     17 H3           4.3620    -0.0000    -2.1340 ha         1 FTV       0.162000
     18 H4           3.3800    -0.7780    -3.3890 h1         1 FTV       0.039700
     19 H5           2.7730     1.9770    -3.2370 hc         1 FTV       0.034033
     20 H6           4.0980     1.2260    -4.1370 hc         1 FTV       0.034033
     21 H7           2.5490     1.5320    -4.9350 hc         1 FTV       0.034033
@<TRIPOS>BOND
     1     1     2 1
     2    11    10 1
     3     9    10 1
     4     9     8 1
     5    14    12 1
     6     2     8 ar
     7     2     3 ar
     8    12    10 1
     9    12    13 1
    10     8     7 ar
    11     3     4 ar
    12     7     6 ar
    13     4     6 ar
    14     4     5 1
    15     3    15 1
    16     6    16 1
    17     7    17 1
    18    10    18 1
    19    11    19 1
    20    11    20 1
    21    11    21 1
@<TRIPOS>SUBSTRUCTURE
     1 FTV         1 TEMP              0 ****  ****    0 ROOT
