@<TRIPOS>MOLECULE
FU0
   18    18     1     0     0
SMALL
bcc


@<TRIPOS>ATOM
      1 C          -0.0750   -0.1200    0.4440 c         1 FU0      0.497100
      2 C1         -2.7720    0.5140    1.8470 c3        1 FU0     -0.171700
      3 OXT         1.1590    0.0630    0.4740 o         1 FU0     -0.555500
      4 C2         -4.2070    0.2290    1.9660 cc        1 FU0      0.304000
      5 O2         -0.5680   -0.4660    1.7310 os        1 FU0     -0.522900
      6 C3         -5.1030   -0.5240    1.2250 cd        1 FU0     -0.292300
      7 C4         -6.3940   -0.3870    1.8590 cd        1 FU0     -0.262300
      8 C5         -6.2150    0.4410    2.9470 cc        1 FU0      0.195600
      9 C1'        -1.9360   -0.7670    1.8340 c3        1 FU0      0.182400
     10 O41        -4.8800    0.8350    3.0380 os        1 FU0     -0.375800
     11 O1         -0.9300   -0.0540   -0.4710 o         1 FU0     -0.555500
     12 H5         -6.8550    0.8430    3.7240 h4        1 FU0      0.033100
     13 H1'        -2.2710   -1.4200    0.9850 h1        1 FU0      0.024200
     14 H1'A       -2.0470   -1.3150    2.8080 h1        1 FU0      0.024200
     15 H1         -2.5750    1.0510    0.8750 hc        1 FU0      0.083200
     16 H1A        -2.4330    1.1760    2.6860 hc        1 FU0      0.083200
     17 H3         -4.8810   -1.1050    0.3350 ha        1 FU0      0.166000
     18 H4         -7.3150   -0.8540    1.5260 ha        1 FU0      0.142000
@<TRIPOS>BOND
     1    1    3 1
     2    1    5 1
     3    1   11 1
     4    2    4 1
     5    2    9 1
     6    2   15 1
     7    2   16 1
     8    4    6 2
     9    4   10 1
    10    5    9 1
    11    6    7 1
    12    6   17 1
    13    7    8 2
    14    7   18 1
    15    8   10 1
    16    8   12 1
    17    9   13 1
    18    9   14 1
@<TRIPOS>SUBSTRUCTURE
     1 FU0         1 TEMP              0 ****  ****    0 ROOT
