@<TRIPOS>MOLECULE
molecule
   13    13     1     0     0
SMALL
bcc


@<TRIPOS>ATOM
      1 O1           0.0000     0.0000     0.0000 os         1 FU1      -0.422600
      2 C2           1.8410     0.0000     1.4960 c3         1 FU1      -0.118400
      3 C3           0.7340    -0.9060     2.1000 c3         1 FU1      -0.118400
      4 C4           1.4360     0.0000     0.0000 c3         1 FU1       0.130400
      5 C5          -0.4890    -0.5570     1.2260 c3         1 FU1       0.130400
      6 H2           2.8210    -0.4420     1.6320 hc         1 FU1       0.054700
      7 H2A          1.7930     1.0000     1.9110 hc         1 FU1       0.054700
      8 H3           0.5500    -0.6480     3.1360 hc         1 FU1       0.054700
      9 H3A          0.9950    -1.9520     1.9950 hc         1 FU1       0.054700
     10 H4           1.8100    -0.8910    -0.4890 h1         1 FU1       0.044950
     11 H4A          1.8100     0.8910    -0.4890 h1         1 FU1       0.044950
     12 H5          -1.0590    -1.4550     1.0180 h1         1 FU1       0.044950
     13 H5A         -1.1090     0.1690     1.7360 h1         1 FU1       0.044950
@<TRIPOS>BOND
     1     1     5 1
     2     1     4 1
     3     4     2 1
     4     3     2 1
     5     2     6 1
     6     2     7 1
     7     5     3 1
     8     3     8 1
     9     3     9 1
    10     4    10 1
    11     4    11 1
    12     5    12 1
    13     5    13 1
@<TRIPOS>SUBSTRUCTURE
     1 FU1         1 TEMP              0 ****  ****    0 ROOT
