@<TRIPOS>MOLECULE
FU1
   13    13     1     0     0
SMALL
bcc


@<TRIPOS>ATOM
      1 O1          0.0110   -0.1530   -0.0530 os        1 FU1     -0.427600
      2 C2          1.9010   -0.2180    1.4340 c3        1 FU1     -0.106400
      3 C3          0.6820   -0.7380    2.1820 c3        1 FU1     -0.106400
      4 C4          1.4110    0.1310    0.0330 c3        1 FU1      0.127400
      5 C5         -0.4730   -0.6730    1.1880 c3        1 FU1      0.127400
      6 H2          2.7050   -0.9930    1.3900 hc        1 FU1      0.051700
      7 H2A         2.3280    0.6830    1.9390 hc        1 FU1      0.051700
      8 H3          0.4650   -0.1110    3.0820 hc        1 FU1      0.051700
      9 H3A         0.8430   -1.7870    2.5320 hc        1 FU1      0.051700
     10 H4          1.9150   -0.4820   -0.7570 h1        1 FU1      0.044700
     11 H4A         1.5350    1.2200   -0.2000 h1        1 FU1      0.044700
     12 H5         -0.9020   -1.6840    0.9710 h1        1 FU1      0.044700
     13 H5A        -1.2880    0.0150    1.5310 h1        1 FU1      0.044700
@<TRIPOS>BOND
     1    1    4 1   
     2    1    5 1   
     3    2    3 1   
     4    2    4 1   
     5    2    6 1   
     6    2    7 1   
     7    3    5 1   
     8    3    8 1   
     9    3    9 1   
    10    4   10 1   
    11    4   11 1   
    12    5   12 1   
    13    5   13 1   
@<TRIPOS>SUBSTRUCTURE
     1 FU1         1 TEMP              0 ****  ****    0 ROOT
