@<TRIPOS>MOLECULE
FU2
   11    11     1     0     0
SMALL
bcc


@<TRIPOS>ATOM
      1 C1         -0.0410   -0.0000    0.0060 c         1 FU2      0.495400
      2 C2          1.4140    0.0000   -0.0430 cc        1 FU2      0.128200
      3 O3          2.0740    0.0000    1.2000 os        1 FU2     -0.354800
      4 C4          3.4330    0.0010    0.9210 cc        1 FU2      0.275600
      5 C5          3.6490    0.0010   -0.4460 cd        1 FU2     -0.284300
      6 C6          2.3470    0.0010   -1.0670 cd        1 FU2     -0.166300
      7 OXT        -0.7390   -0.0000   -1.0100 o         1 FU2     -0.518100
      8 H1         -0.4770   -0.0010    1.0290 h4        1 FU2      0.020200
      9 H4          4.0730    0.0010    1.8000 h4        1 FU2      0.058100
     10 H5          4.6030    0.0020   -0.9660 ha        1 FU2      0.168000
     11 H6          2.1430    0.0010   -2.1360 ha        1 FU2      0.176000
@<TRIPOS>BOND
     1    1    2 1   
     2    1    7 2   
     3    1    8 1   
     4    2    3 1   
     5    2    6 2   
     6    3    4 1   
     7    4    5 2   
     8    4    9 1   
     9    5    6 1   
    10    5   10 1   
    11    6   11 1   
@<TRIPOS>SUBSTRUCTURE
     1 FU2         1 TEMP              0 ****  ****    0 ROOT
