@<TRIPOS>MOLECULE
molecule
   55    58     1     0     0
SMALL
bcc


@<TRIPOS>ATOM
      1 C1           0.0000     0.0000     0.0000 ca         1 FU3      -0.222000
      2 C2           2.0820     0.0000     1.1950 ca         1 FU3      -0.160000
      3 C3          -5.9890    -6.6500     6.0370 cy         1 FU3      -0.108400
      4 C4          -6.7570    -5.9280     4.9180 cy         1 FU3      -0.116400
      5 C5          -4.9430    -7.0210     4.9720 cy         1 FU3      -0.116400
      6 C6          -2.1240    -2.2060     3.2090 c3         1 FU3       0.182300
      7 C7          -3.2540    -2.1420     5.2750 c3         1 FU3       0.048700
      8 C8          -4.2190     0.0200     0.1320 c3         1 FU3      -0.087400
      9 C9          -4.9150     0.0250    -1.2300 c3         1 FU3      -0.132400
     10 C10         -2.7020     0.0120    -0.0710 c3         1 FU3       0.138400
     11 C11          1.3820     0.0000     0.0000 ca         1 FU3       0.085400
     12 C12         -0.6940     0.0010     1.2000 ca         1 FU3       0.182100
     13 C13          1.4040    -0.0110     2.3970 ca         1 FU3       0.103400
     14 C14         -1.6530    -1.0070     3.9870 ca         1 FU3      -0.359900
     15 C15         -2.3140    -0.9680     5.1970 ca         1 FU3       0.467600
     16 C16          0.0090    -0.0040     2.4090 cp         1 FU3      -0.178500
     17 C17         -0.7240    -0.0040     3.6970 cp         1 FU3       0.568800
     18 C18         -1.1640     0.9530     5.7480 ca         1 FU3       0.942900
     19 C19         -5.4080    -5.7780     4.1960 cy         1 FU3       0.113700
     20 C21         -6.4310     0.0320    -1.0280 c3         1 FU3       0.618900
     21 N22         -0.9180     1.9610     6.6630 nv         1 FU3      -1.025500
     22 N23         -2.0500     0.0140     6.0470 nb         1 FU3      -0.758000
     23 N24         -0.5100     0.9540     4.5980 nb         1 FU3      -0.742000
     24 N25         -4.6830    -4.5570     4.5560 ns         1 FU3      -0.580900
     25 N26         -3.1210    -2.9030     4.0280 n          1 FU3      -0.518800
     26 O27         -3.5840    -4.5610     2.6240 o          1 FU3      -0.649100
     27 O28         -2.0520     0.0070     1.2020 os         1 FU3      -0.316900
     28 F29         -6.8120    -1.1100    -0.3160 f          1 FU3      -0.224967
     29 F30         -6.8010     1.1750    -0.3110 f          1 FU3      -0.224967
     30 F31         -7.0680     0.0370    -2.2740 f          1 FU3      -0.224967
     31 Cl32         2.2450    -0.0010    -1.5070 cl         1 FU3      -0.090400
     32 Cl33         2.2860    -0.0310     3.8930 cl         1 FU3      -0.066400
     33 H1          -0.5410     0.0020    -0.9380 ha         1 FU3       0.154000
     34 H2           3.1650    -0.0030     1.1860 ha         1 FU3       0.163000
     35 H3A         -5.6040    -5.9740     6.7920 hc         1 FU3       0.052200
     36 H4          -7.1760    -4.9800     5.2350 hc         1 FU3       0.062200
     37 H4A         -7.4490    -6.5750     4.3940 hc         1 FU3       0.062200
     38 H5          -5.1700    -7.9490     4.4610 hc         1 FU3       0.062200
     39 H5A         -3.9250    -6.9400     5.3320 hc         1 FU3       0.062200
     40 H6          -2.5900    -1.8720     2.2900 h1         1 FU3       0.070200
     41 H7          -2.9860    -2.7690     6.1170 h1         1 FU3       0.062200
     42 H8          -4.5050     0.9050     0.6870 hc         1 FU3       0.076200
     43 H8A         -4.5140    -0.8640     0.6840 hc         1 FU3       0.076200
     44 H9          -4.6200     0.9100    -1.7830 hc         1 FU3       0.080700
     45 H9A         -4.6290    -0.8590    -1.7860 hc         1 FU3       0.080700
     46 H10         -2.4160    -0.8730    -0.6260 h1         1 FU3       0.043200
     47 H10A        -2.4070     0.8960    -0.6230 h1         1 FU3       0.043200
     48 H19         -5.4830    -5.9540     3.1300 h1         1 FU3       0.094700
     49 HN22        -0.9860     2.9200     6.3830 hn         1 FU3       0.448800
     50 HN2A        -0.6860     1.7330     7.6100 hn         1 FU3       0.448800
     51 HN25        -4.8600    -4.1100     5.4330 hn         1 FU3       0.312500
     52 H21         -1.2840    -2.8670     3.0330 h1         1 FU3       0.070200
     53 H22         -4.2730    -1.7890     5.3820 h1         1 FU3       0.062200
     54 C20         -3.7890    -4.0260     3.6970 c          1 FU3       0.815100
     55 H3          -6.5190    -7.5100     6.4290 hc         1 FU3       0.052200
@<TRIPOS>BOND
     1     1    12 ar
     2     1    33 1
     3     2    13 ar
     4     2    34 1
     5     3     5 1
     6     3    55 1
     7     3    35 1
     8     4     3 1
     9     4    19 1
    10     4    36 1
    11     4    37 1
    12     5    38 1
    13     5    39 1
    14     6    25 1
    15     6    14 1
    16     6    40 1
    17     7    15 1
    18     7    41 1
    19     8     9 1
    20     8    42 1
    21     8    43 1
    22     9    20 1
    23     9    44 1
    24     9    45 1
    25    10     8 1
    26    10    27 1
    27    10    46 1
    28    10    47 1
    29    11     1 ar
    30    11     2 ar
    31    12    27 1
    32    12    16 ar
    33    13    16 ar
    34    13    32 1
    35    14    15 ar
    36    15    22 ar
    37    16    17 1
    38    17    14 ar
    39    17    23 ar
    40    18    22 ar
    41    18    21 1
    42    19     5 1
    43    19    24 1
    44    19    48 1
    45    54    24 1
    46    54    25 1
    47    20    29 1
    48    20    30 1
    49    21    49 1
    50    21    50 1
    51    23    18 ar
    52    24    51 1
    53    25     7 1
    54    26    54 2
    55    28    20 1
    56    31    11 1
    57     6    52 1
    58     7    53 1
@<TRIPOS>SUBSTRUCTURE
     1 FU3         1 TEMP              0 ****  ****    0 ROOT
