@<TRIPOS>MOLECULE
FU5
   38    39     1     0     0
SMALL
bcc


@<TRIPOS>ATOM
      1 C1           0.0000     0.0000     0.0000 cp         1 FU5      -0.187500
      2 C2          -0.7450    -0.0010    -1.2800 cp         1 FU5       0.517800
      3 C3           1.3990     0.0000     0.0000 ca         1 FU5       0.179100
      4 C4          -0.6900     0.0060     1.2140 ca         1 FU5       0.030400
      5 C5          -0.4120     0.9000    -2.2960 ca         1 FU5      -0.375600
      6 N6          -1.7390    -0.8630    -1.4830 nb         1 FU5      -0.672000
      7 C7           2.0880     0.0000     1.2030 ca         1 FU5      -0.219000
      8 O8           2.0800    -0.0010    -1.1750 os         1 FU5      -0.296900
      9 C9           0.0110     0.0130     2.4040 ca         1 FU5      -0.148000
     10 Cl10        -2.4260     0.0070     1.2250 cl         1 FU5       0.004600
     11 C11         -1.1360     0.8620    -3.4730 ca         1 FU5       0.445600
     12 C12         -2.4060    -0.8660    -2.6270 ca         1 FU5       0.711900
     13 C13          1.3940     0.0010     2.3980 ca         1 FU5      -0.036000
     14 C14          3.5070    -0.0020    -1.0980 c3         1 FU5       0.205400
     15 N15         -2.1150    -0.0190    -3.6030 nb         1 FU5      -0.674000
     16 C16         -0.8140     1.8140    -4.5970 c3         1 FU5      -0.042400
     17 N17         -3.4340    -1.7750    -2.8060 nv         1 FU5      -0.539500
     18 C18          4.0930    -0.0030    -2.5110 c3         1 FU5      -0.037400
     19 C19          5.6220    -0.0020    -2.4290 c3         1 FU5      -0.084400
     20 C20          6.2090    -0.0040    -3.8410 c3         1 FU5       0.571900
     21 F21          5.7780     1.1380    -4.5260 f          1 FU5      -0.207300
     22 F22          7.6060    -0.0040    -3.7660 f          1 FU5      -0.207300
     23 F23          5.7790    -1.1480    -4.5240 f          1 FU5      -0.207300
     24 H5           0.3950     1.6110    -2.1640 ha         1 FU5       0.134000
     25 H7           3.1710    -0.0050     1.2060 ha         1 FU5       0.121000
     26 H9          -0.5250     0.0150     3.3450 ha         1 FU5       0.119000
     27 H13          1.9370     0.0030     3.3360 ha         1 FU5       0.104000
     28 H14          3.8390    -0.8860    -0.5680 h1         1 FU5       0.004700
     29 H14A         3.8400     0.8830    -0.5690 h1         1 FU5       0.004700
     30 H16         -0.5440     2.7790    -4.1860 hc         1 FU5       0.016033
     31 H16A         0.0150     1.4230    -5.1750 hc         1 FU5       0.016033
     32 H16B        -1.6810     1.9240    -5.2370 hc         1 FU5       0.016033
     33 HN17        -3.3530    -2.7010    -2.4350 hn         1 FU5       0.274800
     34 HN1A        -4.2780    -1.4930    -3.2640 hn         1 FU5       0.274800
     35 H18          3.7600    -0.8880    -3.0400 hc         1 FU5       0.040200
     36 H18A         3.7600     0.8810    -3.0410 hc         1 FU5       0.040200
     37 H19          5.9540     0.8830    -1.9010 hc         1 FU5       0.050700
     38 H19A         5.9550    -0.8860    -1.8980 hc         1 FU5       0.050700
@<TRIPOS>BOND
     1     1     2 1   
     2     1     3 ar  
     3     1     4 ar  
     4     2     5 ar  
     5     2     6 ar  
     6     3     7 ar  
     7     3     8 1   
     8     4     9 ar  
     9     4    10 1   
    10     5    11 ar  
    11     5    24 1   
    12     6    12 ar  
    13     7    13 ar  
    14     7    25 1   
    15     8    14 1   
    16     9    13 ar  
    17     9    26 1   
    18    11    15 ar  
    19    11    16 1   
    20    12    15 ar  
    21    12    17 1   
    22    13    27 1   
    23    14    18 1   
    24    14    28 1   
    25    14    29 1   
    26    16    30 1   
    27    16    31 1   
    28    16    32 1   
    29    17    33 1   
    30    17    34 1   
    31    18    19 1   
    32    18    35 1   
    33    18    36 1   
    34    19    20 1   
    35    19    37 1   
    36    19    38 1   
    37    20    21 1   
    38    20    22 1   
    39    20    23 1   
@<TRIPOS>SUBSTRUCTURE
     1 FU5         1 TEMP              0 ****  ****    0 ROOT
