@<TRIPOS>MOLECULE
molecule
   55    58     1     0     0
SMALL
bcc


@<TRIPOS>ATOM
      1 C1           0.0000     0.0000     0.0000 cp         1 FU7      -0.181500
      2 F1          -0.7860    -6.4000    -6.8890 f          1 FU7      -0.236800
      3 N1           0.1430    -2.9080    -3.5140 n          1 FU7      -0.518800
      4 O1           1.5810    -4.5740    -3.2110 o          1 FU7      -0.653100
      5 Cl1         -2.4270    -0.0010     1.2230 cl         1 FU7      -0.066400
      6 C2           1.3990     0.0000     0.0000 ca         1 FU7       0.184100
      7 F2           0.8640    -5.1530    -7.8600 f          1 FU7      -0.236800
      8 N2          -2.1150     0.0300    -3.6060 nb         1 FU7      -0.756000
      9 O2           2.0800     0.0010    -1.1750 os         1 FU7      -0.324900
     10 Cl2          2.2610    -0.0010     3.9020 cl         1 FU7      -0.087400
     11 C3           2.0870     0.0000     1.2030 ca         1 FU7      -0.219000
     12 N3          -1.6310     0.9660    -1.5450 nb         1 FU7      -0.742000
     13 C4           1.3920    -0.0000     2.3990 ca         1 FU7       0.086400
     14 C5           0.0080    -0.0010     2.4030 ca         1 FU7      -0.160000
     15 N5           0.4510    -4.5690    -5.1240 ns         1 FU7      -0.599900
     16 C6          -0.6920    -0.0010     1.2120 ca         1 FU7       0.102400
     17 N6           5.5580     0.0020    -2.4300 na         1 FU7       0.056400
     18 C7          -0.5400    -1.0010    -2.2270 ca         1 FU7      -0.363900
     19 N7           6.3450     0.9300    -1.7360 nc         1 FU7      -0.519800
     20 C8           0.3610    -2.2060    -2.2430 c3         1 FU7       0.183300
     21 C9          -0.8640    -2.1400    -4.2550 c3         1 FU7       0.047700
     22 C10         -1.2540    -0.9570    -3.4060 ca         1 FU7       0.466600
     23 C11         -2.2960     0.9710    -2.6890 ca         1 FU7       0.943900
     24 C12         -0.7440     0.0060    -1.2810 cp         1 FU7       0.571800
     25 C14          3.5070     0.0010    -1.0980 c3         1 FU7       0.114400
     26 C15          4.0950     0.0020    -2.5100 c3         1 FU7       0.079300
     27 C16          6.3850    -0.8880    -3.0170 cd         1 FU7      -0.104300
     28 C17          7.6540    -0.5390    -2.7080 cc         1 FU7      -0.351300
     29 C18          7.6010     0.6020    -1.8990 cc         1 FU7       0.338200
     30 C19          1.1170    -5.7960    -5.5700 c3         1 FU7       0.095000
     31 C20          0.5950    -6.1850    -6.9540 c3         1 FU7       0.383600
     32 C21          1.2890    -7.4660    -7.4200 c3         1 FU7      -0.134100
     33 H3           3.1700     0.0000     1.2060 ha         1 FU7       0.161000
     34 HN4         -4.1430     1.7630    -3.2010 hn         1 FU7       0.449800
     35 HN4A        -2.9230     2.9420    -2.8470 hn         1 FU7       0.449800
     36 H5          -0.5290    -0.0020     3.3440 ha         1 FU7       0.162000
     37 HN5         -0.2440    -4.1390    -5.7010 hn         1 FU7       0.323500
     38 H8           1.3920    -1.8790    -2.1910 h1         1 FU7       0.070200
     39 H9          -1.7360    -2.7620    -4.4180 h1         1 FU7       0.067200
     40 H14          3.8400    -0.8840    -0.5690 h1         1 FU7       0.060700
     41 H14A         3.8400     0.8850    -0.5670 h1         1 FU7       0.060700
     42 H15          3.7620    -0.8820    -3.0400 h1         1 FU7       0.074200
     43 H15A         3.7620     0.8870    -3.0390 h1         1 FU7       0.074200
     44 H16          6.0850    -1.7310    -3.6290 h4         1 FU7       0.173000
     45 H17          8.5520    -1.0540    -3.0250 ha         1 FU7       0.157000
     46 H18          8.4540     1.1270    -1.4840 h4         1 FU7       0.050100
     47 H19          0.9090    -6.5950    -4.8680 h1         1 FU7       0.074700
     48 H19A         2.1860    -5.6290    -5.6200 h1         1 FU7       0.074700
     49 H21          2.3580    -7.3000    -7.4700 hc         1 FU7       0.065700
     50 H21A         0.9200    -7.7410    -8.4000 hc         1 FU7       0.065700
     51 H21B         1.0810    -8.2650    -6.7180 hc         1 FU7       0.065700
     52 H20          0.0910    -2.8620    -1.4250 h1         1 FU7       0.070200
     53 H211        -0.4290    -1.7840    -5.1810 h1         1 FU7       0.067200
     54 C13          0.7550    -4.0360    -3.9240 c          1 FU7       0.816100
     55 N4          -3.2040     1.9850    -2.9360 nv         1 FU7      -1.025500
@<TRIPOS>BOND
     1     1     6 ar
     2     3    20 1
     3     3    54 1
     4     5    16 1
     5     6    11 ar
     6     6     9 1
     7     7    31 1
     8     8    22 ar
     9     9    25 1
    10    11    33 1
    11    12    24 ar
    12    13    10 1
    13    13    11 ar
    14    55    23 1
    15    55    34 1
    16    55    35 1
    17    14    13 ar
    18    14    36 1
    19    15    54 1
    20    15    30 1
    21    15    37 1
    22    16     1 ar
    23    16    14 ar
    24    17    19 1
    25    17    26 1
    26    18    20 1
    27    20    38 1
    28    21     3 1
    29    21    39 1
    30    22    18 ar
    31    22    21 1
    32    23     8 ar
    33    23    12 ar
    34    24     1 1
    35    24    18 ar
    36    54     4 2
    37    25    26 1
    38    25    40 1
    39    25    41 1
    40    26    42 1
    41    26    43 1
    42    27    17 1
    43    27    44 1
    44    28    27 2
    45    28    29 1
    46    28    45 1
    47    29    19 2
    48    29    46 1
    49    30    31 1
    50    30    47 1
    51    30    48 1
    52    31     2 1
    53    31    32 1
    54    32    49 1
    55    32    50 1
    56    32    51 1
    57    20    52 1
    58    21    53 1
@<TRIPOS>SUBSTRUCTURE
     1 FU7         1 TEMP              0 ****  ****    0 ROOT
