@<TRIPOS>MOLECULE
FU7
   55    58     1     0     0
SMALL
bcc


@<TRIPOS>ATOM
      1 C1           0.0000     0.0000     0.0000 cp         1 FU7      -0.197500
      2 F1          -0.7860    -6.4000    -6.8890 f          1 FU7      -0.219800
      3 N1           0.1430    -2.9080    -3.5140 n          1 FU7      -0.188800
      4 O1           1.5810    -4.5740    -3.2110 o          1 FU7      -0.704100
      5 Cl1         -2.4270    -0.0010     1.2230 cl         1 FU7       0.008600
      6 C2           1.3990     0.0000     0.0000 ca         1 FU7       0.193100
      7 F2           0.8640    -5.1530    -7.8600 f          1 FU7      -0.219800
      8 N2          -2.1150     0.0300    -3.6060 nb         1 FU7      -0.628000
      9 O2           2.0800     0.0010    -1.1750 os         1 FU7      -0.299900
     10 Cl2          2.2610    -0.0010     3.9020 cl         1 FU7      -0.010400
     11 C3           2.0870     0.0000     1.2030 ca         1 FU7      -0.213000
     12 N3          -1.6310     0.9660    -1.5450 nb         1 FU7      -0.637000
     13 C4           1.3920    -0.0000     2.3990 ca         1 FU7       0.027400
     14 C5           0.0080    -0.0010     2.4030 ca         1 FU7      -0.145000
     15 N5           0.4510    -4.5690    -5.1240 ns         1 FU7      -0.218900
     16 C6          -0.6920    -0.0010     1.2120 ca         1 FU7       0.037400
     17 N6           5.5580     0.0020    -2.4300 na         1 FU7       0.480400
     18 C7          -0.5400    -1.0010    -2.2270 ca         1 FU7      -0.363900
     19 N7           6.3450     0.9300    -1.7360 nc         1 FU7      -0.657800
     20 C8           0.3610    -2.2060    -2.2430 c3         1 FU7       0.147300
     21 C9          -0.8640    -2.1400    -4.2550 c3         1 FU7       0.008700
     22 C10         -1.2540    -0.9570    -3.4060 ca         1 FU7       0.410600
     23 C11         -2.2960     0.9710    -2.6890 ca         1 FU7       0.707900
     24 C12         -0.7440     0.0060    -1.2810 cp         1 FU7       0.536800
     25 C14          3.5070     0.0010    -1.0980 c3         1 FU7       0.181400
     26 C15          4.0950     0.0020    -2.5100 c3         1 FU7      -0.011700
     27 C16          6.3850    -0.8880    -3.0170 cc         1 FU7      -0.239300
     28 C17          7.6540    -0.5390    -2.7080 cd         1 FU7      -0.333300
     29 C18          7.6010     0.6020    -1.8990 cd         1 FU7       0.399200
     30 C19          1.1170    -5.7960    -5.5700 c3         1 FU7       0.022000
     31 C20          0.5950    -6.1850    -6.9540 c3         1 FU7       0.354600
     32 C21          1.2890    -7.4660    -7.4200 c3         1 FU7      -0.040100
     33 H3           3.1700     0.0000     1.2060 ha         1 FU7       0.140000
     34 HN4         -4.1430     1.7630    -3.2010 hn         1 FU7       0.278300
     35 HN4A        -2.9230     2.9420    -2.8470 hn         1 FU7       0.278300
     36 H5          -0.5290    -0.0020     3.3440 ha         1 FU7       0.131000
     37 HN5         -0.2440    -4.1390    -5.7010 hn         1 FU7       0.184500
     38 H8           1.3920    -1.8790    -2.1910 h1         1 FU7       0.037700
     39 H9          -1.7360    -2.7620    -4.4180 h1         1 FU7       0.029200
     40 H14          3.8400    -0.8840    -0.5690 h1         1 FU7       0.024200
     41 H14A         3.8400     0.8850    -0.5670 h1         1 FU7       0.024200
     42 H15          3.7620    -0.8820    -3.0400 h1         1 FU7       0.040200
     43 H15A         3.7620     0.8870    -3.0390 h1         1 FU7       0.040200
     44 H16          6.0850    -1.7310    -3.6290 h4         1 FU7       0.147000
     45 H17          8.5520    -1.0540    -3.0250 ha         1 FU7       0.135000
     46 H18          8.4540     1.1270    -1.4840 h4         1 FU7       0.004100
     47 H19          0.9090    -6.5950    -4.8680 h1         1 FU7       0.049200
     48 H19A         2.1860    -5.6290    -5.6200 h1         1 FU7       0.049200
     49 H21          2.3580    -7.3000    -7.4700 hc         1 FU7       0.032367
     50 H21A         0.9200    -7.7410    -8.4000 hc         1 FU7       0.032367
     51 H21B         1.0810    -8.2650    -6.7180 hc         1 FU7       0.032367
     52 H20          0.0910    -2.8620    -1.4250 h1         1 FU7       0.037700
     53 H211        -0.4290    -1.7840    -5.1810 h1         1 FU7       0.029200
     54 C13          0.7550    -4.0360    -3.9240 c          1 FU7       0.622100
     55 N4          -3.2040     1.9850    -2.9360 nv         1 FU7      -0.564500
@<TRIPOS>BOND
     1     1     6 ar  
     2     1    16 ar  
     3     1    24 1   
     4     2    31 1   
     5     3    20 1   
     6     3    21 1   
     7     3    54 1   
     8     4    54 2   
     9     5    16 1   
    10     6     9 1   
    11     6    11 ar  
    12     7    31 1   
    13     8    22 ar  
    14     8    23 ar  
    15     9    25 1   
    16    10    13 1   
    17    11    13 ar  
    18    11    33 1   
    19    12    23 ar  
    20    12    24 ar  
    21    13    14 ar  
    22    14    16 ar  
    23    14    36 1   
    24    15    30 1   
    25    15    37 1   
    26    15    54 1   
    27    17    19 1   
    28    17    26 1   
    29    17    27 1   
    30    18    20 1   
    31    18    22 ar  
    32    18    24 ar  
    33    19    29 2   
    34    20    38 1   
    35    20    52 1   
    36    21    22 1   
    37    21    39 1   
    38    21    53 1   
    39    23    55 1   
    40    25    26 1   
    41    25    40 1   
    42    25    41 1   
    43    26    42 1   
    44    26    43 1   
    45    27    28 2   
    46    27    44 1   
    47    28    29 1   
    48    28    45 1   
    49    29    46 1   
    50    30    31 1   
    51    30    47 1   
    52    30    48 1   
    53    31    32 1   
    54    32    49 1   
    55    32    50 1   
    56    32    51 1   
    57    34    55 1   
    58    35    55 1   
@<TRIPOS>SUBSTRUCTURE
     1 FU7         1 TEMP              0 ****  ****    0 ROOT
