@<TRIPOS>MOLECULE
molecule
   47    51     1     0     0
SMALL
bcc


@<TRIPOS>ATOM
      1 N1           0.0000     0.0000     0.0000 nb         1 FU9      -0.791000
      2 C2           1.3290     0.0000     0.0000 ca         1 FU9       0.927900
      3 N3           2.0410     0.0000     1.1140 nb         1 FU9      -0.801000
      4 C4           1.4300    -0.0010     2.2960 ca         1 FU9       0.365300
      5 C5           0.0170    -0.0020     2.3330 ca         1 FU9      -0.275600
      6 C6          -0.6890    -0.0010     1.1270 ca         1 FU9       0.506200
      7 OAA         -3.8130    -0.0110     7.5750 o          1 FU9      -0.827800
      8 OAB         -1.7890    -0.0110     8.4880 o          1 FU9      -0.827800
      9 FAC          8.1210     1.2220     5.0360 f          1 FU9      -0.230300
     10 FAD          8.2960     0.3710     7.1490 f          1 FU9      -0.230300
     11 FAE          7.2700     2.3840     6.8090 f          1 FU9      -0.230300
     12 CAF          4.4330    -1.0020     6.9820 ca         1 FU9      -0.113000
     13 CAG          3.7340    -0.8870     5.7970 ca         1 FU9      -0.095000
     14 CAH          5.6460    -0.3540     7.1370 ca         1 FU9      -0.114000
     15 CAI         -2.6090    -0.0070     4.9940 ca         1 FU9      -0.074000
     16 CAJ         -2.0270    -0.0050     3.7620 ca         1 FU9      -0.156000
     17 CAL          5.4680     0.5290     4.9180 ca         1 FU9      -0.136000
     18 CAM         -0.4360    -0.0060     6.0620 ca         1 FU9      -0.146300
     19 CAN          1.9180    -0.5720    -3.7080 cx         1 FU9      -0.167900
     20 CAO          1.7060     0.9380    -3.5790 cx         1 FU9      -0.167900
     21 NAQ          1.5190    -0.0040     4.7070 nb         1 FU9      -0.724000
     22 NAT          1.9940     0.0010    -1.2120 nu         1 FU9      -0.873900
     23 CAV          4.2500    -0.1190     4.7590 ca         1 FU9       0.169600
     24 CAW         -1.8210    -0.0080     6.1540 ca         1 FU9      -0.090600
     25 CAX          6.1650     0.4050     6.1050 ca         1 FU9      -0.168300
     26 CAZ          2.1620    -0.0020     3.5650 ca         1 FU9       0.606900
     27 CBA          0.1780    -0.0040     4.8020 ca         1 FU9       0.405600
     28 CBB         -0.6350    -0.0030     3.6440 ca         1 FU9      -0.153300
     29 CBE          1.2330     0.0010    -2.4650 cx         1 FU9       0.207500
     30 CBF          7.4860     1.1080     6.2780 c3         1 FU9       0.673200
     31 H6          -1.7720    -0.0010     1.1160 h4         1 FU9       0.040100
     32 HAF          4.0300    -1.5980     7.7920 ha         1 FU9       0.143000
     33 HAG          2.7840    -1.3940     5.6760 ha         1 FU9       0.176000
     34 HAH          6.1930    -0.4480     8.0670 ha         1 FU9       0.137000
     35 HAI         -3.6890    -0.0080     5.0780 ha         1 FU9       0.161000
     36 HAJ         -2.6450    -0.0040     2.8730 ha         1 FU9       0.109000
     37 HAL          5.8750     1.1260     4.1110 ha         1 FU9       0.140000
     38 HAM          0.1690    -0.0070     6.9610 ha         1 FU9       0.168000
     39 HAN          1.2660    -1.0770    -4.4100 hc         1 FU9       0.074450
     40 HANA         2.9350    -0.9150    -3.5650 hc         1 FU9       0.074450
     41 HAO          2.5940     1.5170    -3.3560 hc         1 FU9       0.074450
     42 HAOA         0.9240     1.3550    -4.2020 hc         1 FU9       0.074450
     43 HNAS         4.0410     0.0580     2.6910 hn         1 FU9       0.466800
     44 HNAT         2.9940    -0.0180    -1.2350 hn         1 FU9       0.454800
     45 HBE          0.1610    -0.1530    -2.4260 h1         1 FU9       0.123700
     46 NAS          3.5450    -0.0010     3.5580 nu         1 FU9      -0.765300
     47 CAU         -2.4680    -0.0100     7.4810 c          1 FU9       0.879200
@<TRIPOS>BOND
     1     1     6 ar
     2     1     2 ar
     3    22     2 1
     4     2     3 ar
     5     3     4 ar
     6     5     4 ar
     7     4    26 ar
     8     6     5 ar
     9     5    28 ar
    10     6    31 1
    11    47     7 1
    12     8    47 1
    13    30     9 1
    14    30    10 1
    15    11    30 1
    16    13    12 ar
    17    12    14 ar
    18    12    32 1
    19    23    13 ar
    20    13    33 1
    21    25    14 ar
    22    14    34 1
    23    16    15 ar
    24    15    24 ar
    25    15    35 1
    26    16    28 ar
    27    16    36 1
    28    23    17 ar
    29    17    25 ar
    30    17    37 1
    31    24    18 ar
    32    27    18 ar
    33    18    38 1
    34    19    29 1
    35    19    20 1
    36    19    39 1
    37    19    40 1
    38    29    20 1
    39    20    41 1
    40    20    42 1
    41    27    21 ar
    42    26    21 ar
    43    26    46 1
    44    46    23 1
    45    46    43 1
    46    22    29 1
    47    22    44 1
    48    24    47 1
    49    25    30 1
    50    28    27 ar
    51    29    45 1
@<TRIPOS>SUBSTRUCTURE
     1 FU9         1 TEMP              0 ****  ****    0 ROOT
