@<TRIPOS>MOLECULE
FUE
   76    81     1     0     0
SMALL
bcc


@<TRIPOS>ATOM
      1 C1           0.0000     0.0000     0.0000 c3         1 FUE       0.007900
      2 C2           1.5300     0.0000     0.0000 c3         1 FUE       0.118500
      3 C3           2.0420     0.0000     1.4420 c3         1 FUE       0.104800
      4 N4           3.5110     0.0390     1.4390 n3         1 FUE      -0.500600
      5 C5           4.0430    -0.0360     2.8050 c3         1 FUE       0.035800
      6 C6           3.9150    -1.4470     3.3180 c          1 FUE       0.575100
      7 C10          5.1390    -2.9890     6.4480 c3         1 FUE      -0.112300
      8 C11          4.1860    -3.4320     7.5590 c3         1 FUE       0.014900
      9 C12          6.4300    -3.8070     6.4970 c3         1 FUE       0.014900
     10 C13          5.4420    -1.5110     6.5710 ca         1 FUE       0.330600
     11 C15          6.1950     0.4760     7.4690 ca         1 FUE       0.374200
     12 C16          5.7850     1.1810     6.3540 ca         1 FUE      -0.167600
     13 C19          7.5580     3.1750     4.3890 ca         1 FUE      -0.071500
     14 C21          9.9060     3.4760     4.7590 ca         1 FUE       0.108900
     15 C23          9.7180     3.2600     6.1140 ca         1 FUE      -0.127500
     16 C24          8.4520     3.0070     6.6050 ca         1 FUE      -0.071500
     17 C25          5.1790     0.5060     5.3100 ca         1 FUE      -0.140000
     18 C26          5.0030    -0.8780     5.4200 ca         1 FUE      -0.187700
     19 C27          4.0010     1.2410     0.7480 c3         1 FUE       0.060500
     20 C28          5.5300     1.2410     0.7470 c3         1 FUE       0.080000
     21 C31          6.7170    -2.2400    -0.2320 ca         1 FUE      -0.084300
     22 C35          7.2770    -2.1560    -2.5750 ca         1 FUE      -0.014000
     23 C36          6.8170    -1.5170    -1.4230 ca         1 FUE      -0.174600
     24 C37          6.3760    -0.1330    -1.1620 c          1 FUE       0.657100
     25 C39          3.4890     1.2410    -0.6950 c3         1 FUE       0.143800
     26 O7           3.3490    -2.2870     2.6480 o          1 FUE      -0.604100
     27 N8           4.4280    -1.7770     4.5190 n          1 FUE       0.023000
     28 C9           4.4650    -3.1340     5.0740 c3         1 FUE       0.042000
     29 N14          6.0150    -0.8270     7.5440 nb         1 FUE      -0.512000
     30 C18          7.3730     2.9590     5.7420 ca         1 FUE      -0.106300
     31 C20          8.8230     3.4320     3.8970 ca         1 FUE      -0.127500
     32 N29          6.0190     0.0070     0.1260 n          1 FUE      -0.145800
     33 C30          6.1980    -1.2790     0.8090 c3         1 FUE       0.079300
     34 C32          7.0740    -3.5680    -0.1930 ca         1 FUE      -0.085000
     35 C33          7.5280    -4.1950    -1.3410 ca         1 FUE      -0.073000
     36 C34          7.6250    -3.4900    -2.5280 ca         1 FUE      -0.120000
     37 N40          2.0190     1.2010    -0.6910 n7         1 FUE      -0.577200
     38 H41         -0.3610     0.8520     0.5630 hc         1 FUE       0.007367
     39 H42         -0.3610    -0.9140     0.4560 hc         1 FUE       0.007367
     40 H43         -0.3610     0.0610    -1.0200 hc         1 FUE       0.007367
     41 H44          1.8960    -0.8820    -0.5110 h1         1 FUE       0.055700
     42 H46          1.7070    -0.9000     1.9430 h1         1 FUE       0.026700
     43 H45          1.6590     0.8710     1.9590 h1         1 FUE       0.026700
     44 H48          5.0870     0.2530     2.8030 h1         1 FUE       0.044200
     45 H47          3.4840     0.6330     3.4480 h1         1 FUE       0.044200
     46 H53          4.6900    -3.3650     8.5150 hc         1 FUE       0.012200
     47 H51          3.3140    -2.7900     7.5650 hc         1 FUE       0.012200
     48 H52          3.8790    -4.4560     7.3840 hc         1 FUE       0.012200
     49 H55          6.8720    -3.7250     7.4830 hc         1 FUE       0.012200
     50 H56          6.2080    -4.8460     6.2850 hc         1 FUE       0.012200
     51 H54          7.1260    -3.4280     5.7580 hc         1 FUE       0.012200
     52 H57          6.6690     0.9990     8.2900 h4         1 FUE      -0.012900
     53 H60          6.7120     3.1400     3.7140 ha         1 FUE       0.107000
     54 H62         10.5640     3.2960     6.7900 ha         1 FUE       0.121000
     55 H63          8.3050     2.8380     7.6650 ha         1 FUE       0.107000
     56 H64          4.8490     1.0360     4.4250 ha         1 FUE       0.135000
     57 H65          3.6350     2.1240     1.2580 h1         1 FUE       0.013700
     58 H67          5.8910     2.0940     0.1850 h1         1 FUE       0.032200
     59 H66          5.8920     1.3000     1.7660 h1         1 FUE       0.032200
     60 H73          7.3540    -1.6070    -3.5060 ha         1 FUE       0.115000
     61 H74          3.8230     2.1410    -1.1960 h1         1 FUE       0.045700
     62 H75          3.8710     0.3700    -1.2130 h1         1 FUE       0.045700
     63 H50          5.0690    -3.7690     4.4380 h1         1 FUE       0.041200
     64 H49          3.4540    -3.5010     5.2020 h1         1 FUE       0.041200
     65 H61          8.9680     3.6010     2.8370 ha         1 FUE       0.121000
     66 H69          6.9190    -1.1760     1.6110 h1         1 FUE       0.042700
     67 H68          5.2490    -1.6290     1.1960 h1         1 FUE       0.042700
     68 H70          6.9980    -4.1220     0.7340 ha         1 FUE       0.104000
     69 H71          7.8040    -5.2430    -1.3110 ha         1 FUE       0.103000
     70 H72          7.9810    -3.9860    -3.4220 ha         1 FUE       0.107000
     71 H77          1.6650     2.0170    -0.2330 hn         1 FUE       0.248800
     72 C17          5.9930     2.6730     6.2760 c3         1 FUE       0.097200
     73 O38          6.3430     0.7530    -1.9930 o          1 FUE      -0.678500
     74 F22         11.1430     3.7230     4.2790 f          1 FUE      -0.124900
     75 H59          5.2520     3.1070     5.6160 hc         1 FUE       0.025700
     76 H58          5.8920     3.1040     7.2650 hc         1 FUE       0.025700
@<TRIPOS>BOND
     1     1     2 1   
     2     1    38 1   
     3     1    39 1   
     4     1    40 1   
     5     2     3 1   
     6     2    37 1   
     7     2    41 1   
     8     3     4 1   
     9     3    42 1   
    10     3    43 1   
    11     4     5 1   
    12     4    19 1   
    13     5     6 1   
    14     5    44 1   
    15     5    45 1   
    16     6    26 2   
    17     6    27 1   
    18     7     8 1   
    19     7     9 1   
    20     7    10 1   
    21     7    28 1   
    22     8    46 1   
    23     8    47 1   
    24     8    48 1   
    25     9    49 1   
    26     9    50 1   
    27     9    51 1   
    28    10    18 ar  
    29    10    29 ar  
    30    11    12 ar  
    31    11    29 ar  
    32    11    52 1   
    33    12    17 ar  
    34    12    72 1   
    35    13    30 ar  
    36    13    31 ar  
    37    13    53 1   
    38    14    15 ar  
    39    14    31 ar  
    40    14    74 1   
    41    15    16 ar  
    42    15    54 1   
    43    16    30 ar  
    44    16    55 1   
    45    17    18 ar  
    46    17    56 1   
    47    18    27 1   
    48    19    20 1   
    49    19    25 1   
    50    19    57 1   
    51    20    32 1   
    52    20    58 1   
    53    20    59 1   
    54    21    23 ar  
    55    21    33 1   
    56    21    34 ar  
    57    22    23 ar  
    58    22    36 ar  
    59    22    60 1   
    60    23    24 1   
    61    24    32 1   
    62    24    73 2   
    63    25    37 1   
    64    25    61 1   
    65    25    62 1   
    66    27    28 1   
    67    28    63 1   
    68    28    64 1   
    69    30    72 1   
    70    31    65 1   
    71    32    33 1   
    72    33    66 1   
    73    33    67 1   
    74    34    35 ar  
    75    34    68 1   
    76    35    36 ar  
    77    35    69 1   
    78    36    70 1   
    79    37    71 1   
    80    72    75 1   
    81    72    76 1   
@<TRIPOS>SUBSTRUCTURE
     1 FUE         1 TEMP              0 ****  ****    0 ROOT
