@<TRIPOS>MOLECULE
molecule
   76    81     1     0     0
SMALL
bcc


@<TRIPOS>ATOM
      1 C1           0.0000     0.0000     0.0000 c3         1 FUE      -0.089100
      2 C2           1.5300     0.0000     0.0000 c3         1 FUE       0.164500
      3 C3           2.0420     0.0000     1.4420 c3         1 FUE       0.122800
      4 N4           3.5110     0.0390     1.4390 n3         1 FUE      -0.701600
      5 C5           4.0430    -0.0360     2.8050 c3         1 FUE       0.070800
      6 C6           3.9150    -1.4470     3.3180 c          1 FUE       0.667100
      7 C10          5.1390    -2.9890     6.4480 c3         1 FUE      -0.120300
      8 C11          4.1860    -3.4320     7.5590 c3         1 FUE      -0.077100
      9 C12          6.4300    -3.8070     6.4970 c3         1 FUE      -0.077100
     10 C13          5.4420    -1.5110     6.5710 ca         1 FUE       0.390600
     11 C15          6.1950     0.4760     7.4690 ca         1 FUE       0.402200
     12 C16          5.7850     1.1810     6.3540 ca         1 FUE      -0.170600
     13 C19          7.5580     3.1750     4.3890 ca         1 FUE      -0.097500
     14 C21          9.9060     3.4760     4.7590 ca         1 FUE       0.136900
     15 C23          9.7180     3.2600     6.1140 ca         1 FUE      -0.162500
     16 C24          8.4520     3.0070     6.6050 ca         1 FUE      -0.097500
     17 C25          5.1790     0.5060     5.3100 ca         1 FUE      -0.148000
     18 C26          5.0030    -0.8780     5.4200 ca         1 FUE      -0.061700
     19 C27          4.0010     1.2410     0.7480 c3         1 FUE       0.101500
     20 C28          5.5300     1.2410     0.7470 c3         1 FUE       0.139000
     21 C31          6.7170    -2.2400    -0.2320 ca         1 FUE      -0.080300
     22 C35          7.2770    -2.1560    -2.5750 ca         1 FUE      -0.054000
     23 C36          6.8170    -1.5170    -1.4230 ca         1 FUE      -0.161600
     24 C37          6.3760    -0.1330    -1.1620 c          1 FUE       0.717100
     25 C39          3.4890     1.2410    -0.6950 c3         1 FUE       0.167800
     26 O7           3.3490    -2.2870     2.6480 o          1 FUE      -0.565100
     27 N8           4.4280    -1.7770     4.5190 n          1 FUE      -0.374000
     28 C9           4.4650    -3.1340     5.0740 c3         1 FUE       0.113000
     29 N14          6.0150    -0.8270     7.5440 nb         1 FUE      -0.648000
     30 C18          7.3730     2.9590     5.7420 ca         1 FUE      -0.100300
     31 C20          8.8230     3.4320     3.8970 ca         1 FUE      -0.162500
     32 N29          6.0190     0.0070     0.1260 n          1 FUE      -0.480800
     33 C30          6.1980    -1.2790     0.8090 c3         1 FUE       0.132300
     34 C32          7.0740    -3.5680    -0.1930 ca         1 FUE      -0.117000
     35 C33          7.5280    -4.1950    -1.3410 ca         1 FUE      -0.101000
     36 C34          7.6250    -3.4900    -2.5280 ca         1 FUE      -0.142000
     37 N40          2.0190     1.2010    -0.6910 n7         1 FUE      -0.805200
     38 H41         -0.3610     0.8520     0.5630 hc         1 FUE       0.041033
     39 H42         -0.3610    -0.9140     0.4560 hc         1 FUE       0.041033
     40 H43         -0.3610     0.0610    -1.0200 hc         1 FUE       0.041033
     41 H44          1.8960    -0.8820    -0.5110 h1         1 FUE       0.087700
     42 H46          1.7070    -0.9000     1.9430 h1         1 FUE       0.045700
     43 H45          1.6590     0.8710     1.9590 h1         1 FUE       0.045700
     44 H48          5.0870     0.2530     2.8030 h1         1 FUE       0.061700
     45 H47          3.4840     0.6330     3.4480 h1         1 FUE       0.061700
     46 H53          4.6900    -3.3650     8.5150 hc         1 FUE       0.045533
     47 H51          3.3140    -2.7900     7.5650 hc         1 FUE       0.045533
     48 H52          3.8790    -4.4560     7.3840 hc         1 FUE       0.045533
     49 H55          6.8720    -3.7250     7.4830 hc         1 FUE       0.045533
     50 H56          6.2080    -4.8460     6.2850 hc         1 FUE       0.045533
     51 H54          7.1260    -3.4280     5.7580 hc         1 FUE       0.045533
     52 H57          6.6690     0.9990     8.2900 h4         1 FUE       0.028100
     53 H60          6.7120     3.1400     3.7140 ha         1 FUE       0.133500
     54 H62         10.5640     3.2960     6.7900 ha         1 FUE       0.148000
     55 H63          8.3050     2.8380     7.6650 ha         1 FUE       0.133500
     56 H64          4.8490     1.0360     4.4250 ha         1 FUE       0.144000
     57 H65          3.6350     2.1240     1.2580 h1         1 FUE       0.025700
     58 H67          5.8910     2.0940     0.1850 h1         1 FUE       0.058700
     59 H66          5.8920     1.3000     1.7660 h1         1 FUE       0.058700
     60 H73          7.3540    -1.6070    -3.5060 ha         1 FUE       0.147000
     61 H74          3.8230     2.1410    -1.1960 h1         1 FUE       0.077200
     62 H75          3.8710     0.3700    -1.2130 h1         1 FUE       0.077200
     63 H50          5.0690    -3.7690     4.4380 h1         1 FUE       0.069200
     64 H49          3.4540    -3.5010     5.2020 h1         1 FUE       0.069200
     65 H61          8.9680     3.6010     2.8370 ha         1 FUE       0.148000
     66 H69          6.9190    -1.1760     1.6110 h1         1 FUE       0.072200
     67 H68          5.2490    -1.6290     1.1960 h1         1 FUE       0.072200
     68 H70          6.9980    -4.1220     0.7340 ha         1 FUE       0.133000
     69 H71          7.8040    -5.2430    -1.3110 ha         1 FUE       0.134000
     70 H72          7.9810    -3.9860    -3.4220 ha         1 FUE       0.136000
     71 H77          1.6650     2.0170    -0.2330 hn         1 FUE       0.344800
     72 C17          5.9930     2.6730     6.2760 c3         1 FUE       0.016200
     73 O38          6.3430     0.7530    -1.9930 o          1 FUE      -0.638500
     74 F22         11.1430     3.7230     4.2790 f          1 FUE      -0.136900
     75 H59          5.2520     3.1070     5.6160 hc         1 FUE       0.059700
     76 H58          5.8920     3.1040     7.2650 hc         1 FUE       0.059700
@<TRIPOS>BOND
     1    31    13 ar
     2    31    14 ar
     3    13    30 ar
     4    29    11 ar
     5    29    10 ar
     6    11    12 ar
     7     9     7 1
     8    74    14 1
     9     8     7 1
    10    14    15 ar
    11    10     7 1
    12    10    18 ar
    13    30    72 1
    14    30    16 ar
    15     7    28 1
    16    12    72 1
    17    12    17 ar
    18    36    35 ar
    19    36    22 ar
    20    15    16 ar
    21    18    17 ar
    22    18    27 1
    23    35    34 ar
    24    22    23 ar
    25    28    27 1
    26    27     6 1
    27    34    21 ar
    28    23    21 ar
    29    23    24 1
    30    21    33 1
    31    73    24 2
    32     6    26 2
    33     6     5 1
    34    24    32 1
    35     5     4 1
    36    33    32 1
    37    32    20 1
    38     4     3 1
    39     4    19 1
    40    20    19 1
    41     3     2 1
    42    19    25 1
    43     2     1 1
    44     2    37 1
    45    25    37 1
    46     1    38 1
    47     1    39 1
    48     1    40 1
    49     2    41 1
    50     3    42 1
    51     3    43 1
    52     5    44 1
    53     5    45 1
    54     8    46 1
    55     8    47 1
    56     8    48 1
    57     9    49 1
    58     9    50 1
    59     9    51 1
    60    11    52 1
    61    13    53 1
    62    15    54 1
    63    16    55 1
    64    17    56 1
    65    19    57 1
    66    20    58 1
    67    20    59 1
    68    22    60 1
    69    25    61 1
    70    25    62 1
    71    28    63 1
    72    28    64 1
    73    72    75 1
    74    72    76 1
    75    31    65 1
    76    33    66 1
    77    33    67 1
    78    34    68 1
    79    35    69 1
    80    36    70 1
    81    37    71 1
@<TRIPOS>SUBSTRUCTURE
     1 FUE         1 TEMP              0 ****  ****    0 ROOT
