@<TRIPOS>MOLECULE
molecule
   22    22     1     0     0
SMALL
bcc


@<TRIPOS>ATOM
      1 C1           0.0000     0.0000     0.0000 c3         1 FUF       0.315900
      2 C2           1.5300     0.0000     0.0000 c3         1 FUF       0.144600
      3 C3           2.0300     0.0000     1.4490 c3         1 FUF       0.104100
      4 C4           1.3770    -1.1710     2.1910 c3         1 FUF       0.109100
      5 C5          -0.1410    -1.0820     2.0270 c3         1 FUF       0.135100
      6 C6          -0.8050    -2.2260     2.7950 c3         1 FUF      -0.085100
      7 O1          -0.4740     0.0300    -1.3470 oh         1 FUF      -0.569800
      8 F2           1.9980     1.1400    -0.6590 f          1 FUF      -0.235300
      9 O3           3.4510    -0.1500     1.4660 oh         1 FUF      -0.583800
     10 O4           1.8490    -2.4050     1.6470 oh         1 FUF      -0.572800
     11 O5          -0.4830    -1.1750     0.6460 os         1 FUF      -0.397600
     12 H1          -0.3580     0.8730     0.5320 h2         1 FUF       0.021700
     13 H2           1.8890    -0.8890    -0.5050 h1         1 FUF       0.111700
     14 H3           1.7520     0.9310     1.9270 h1         1 FUF       0.041700
     15 H4           1.6290    -1.1150     3.2430 h1         1 FUF       0.043700
     16 H5          -0.4870    -0.1320     2.4180 h1         1 FUF       0.036700
     17 H6C1        -0.5720    -3.1680     2.3130 hc         1 FUF       0.050700
     18 H6C2        -0.4350    -2.2400     3.8130 hc         1 FUF       0.050700
     19 H6C3        -1.8780    -2.0800     2.8030 hc         1 FUF       0.050700
     20 HA          -1.3220     0.4410    -1.3730 ho         1 FUF       0.412000
     21 HB           3.8410     0.6020     1.8790 ho         1 FUF       0.406000
     22 HC           2.4280    -2.8190     2.2650 ho         1 FUF       0.407000
@<TRIPOS>BOND
     1     1     2 1
     2     1     7 1
     3     1    11 1
     4     1    12 1
     5     2     3 1
     6     2     8 1
     7     2    13 1
     8     3     4 1
     9     3     9 1
    10     3    14 1
    11     4     5 1
    12     4    10 1
    13     4    15 1
    14     5     6 1
    15     5    11 1
    16     5    16 1
    17     6    17 1
    18     6    18 1
    19     6    19 1
    20     7    20 1
    21     9    21 1
    22    10    22 1
@<TRIPOS>SUBSTRUCTURE
     1 FUF         1 TEMP              0 ****  ****    0 ROOT
