@<TRIPOS>MOLECULE
FUF
   22    22     1     0     0
SMALL
bcc


@<TRIPOS>ATOM
      1 C1          0.0180    0.2930    0.1610 c3        1 FUF      0.326900
      2 C2          1.5600    0.1070    0.1490 c3        1 FUF      0.074600
      3 C3          2.0500   -0.0580    1.6050 c3        1 FUF      0.076100
      4 C4          1.3070   -1.2240    2.2770 c3        1 FUF      0.120100
      5 C5         -0.2110   -1.0060    2.1570 c3        1 FUF      0.159100
      6 C6         -0.9910   -2.2050    2.6570 c3        1 FUF     -0.089100
      7 O1         -0.5310    0.2500   -1.1230 oh        1 FUF     -0.576800
      8 F2          2.1870    1.1830   -0.4520 f         1 FUF     -0.230300
      9 O3          3.4280   -0.3860    1.6420 oh        1 FUF     -0.602800
     10 O4          1.6350   -2.4580    1.6660 oh        1 FUF     -0.587800
     11 O5         -0.6120   -0.8050    0.8010 os        1 FUF     -0.437600
     12 H1         -0.2720    1.2800    0.6130 h2        1 FUF      0.083700
     13 H2          1.8130   -0.8300   -0.4270 h1        1 FUF      0.087700
     14 H3          1.8730    0.8960    2.1740 h1        1 FUF      0.056700
     15 H4          1.5930   -1.2600    3.3660 h1        1 FUF      0.057700
     16 H5         -0.4730   -0.0820    2.7490 h1        1 FUF      0.041700
     17 H6C1       -0.7760   -2.3570    3.7400 hc        1 FUF      0.055700
     18 H6C2       -0.6880   -3.1190    2.0900 hc        1 FUF      0.055700
     19 H6C3       -2.0840   -2.0360    2.5120 hc        1 FUF      0.055700
     20 HA         -0.5580   -0.6750   -1.4090 ho        1 FUF      0.427000
     21 HB          3.8880    0.2760    1.1090 ho        1 FUF      0.424000
     22 HC          2.6000   -2.5220    1.6750 ho        1 FUF      0.423000
@<TRIPOS>BOND
     1    1    2 1   
     2    1    7 1   
     3    1   11 1   
     4    1   12 1   
     5    2    3 1   
     6    2    8 1   
     7    2   13 1   
     8    3    4 1   
     9    3    9 1   
    10    3   14 1   
    11    4    5 1   
    12    4   10 1   
    13    4   15 1   
    14    5    6 1   
    15    5   11 1   
    16    5   16 1   
    17    6   17 1   
    18    6   18 1   
    19    6   19 1   
    20    7   20 1   
    21    9   21 1   
    22   10   22 1   
@<TRIPOS>SUBSTRUCTURE
     1 FUF         1 TEMP              0 ****  ****    0 ROOT
