@<TRIPOS>MOLECULE
FUG
   68    69     1     0     0
SMALL
bcc


@<TRIPOS>ATOM
      1 C5         -0.3960   -0.6520   -0.0050 c3        1 FUG     -0.080400
      2 C4          1.1060   -0.4270   -0.1440 c3        1 FUG      0.114100
      3 C3          1.7360   -0.1680    1.2370 c3        1 FUG      0.141100
      4 C2          1.0640    1.0150    1.9520 c3        1 FUG     -0.029700
      5 C1         -0.4450    0.7260    2.1050 c3        1 FUG      0.156800
      6 C6         -1.0620    0.4940    0.7170 c3        1 FUG     -0.105400
      7 O11        -0.5830   -0.4490    2.9060 oh        1 FUG     -0.602800
      8 C11        -1.1760    1.8840    2.7760 c3        1 FUG     -0.125100
      9 C21         1.7450    1.3380    3.2660 cx        1 FUG      0.105800
     10 C22         1.6030    2.7240    3.8250 cx        1 FUG      0.056100
     11 C23         1.7100    3.0030    5.2960 c3        1 FUG     -0.043200
     12 C24         1.5170    4.4380    5.6150 c2        1 FUG     -0.166200
     13 C25         1.2100    4.8910    6.8410 c2        1 FUG     -0.130400
     14 C2A         2.0740    0.1740    4.1490 c3        1 FUG     -0.084100
     15 O2A         2.8040    2.3180    3.1570 os        1 FUG     -0.385600
     16 C2B         1.0100    3.9840    7.9970 c3        1 FUG     -0.056400
     17 C2C         1.0460    6.3380    7.1180 c3        1 FUG     -0.056400
     18 O31         3.1190    0.1560    1.1250 os        1 FUG     -0.398600
     19 C31         3.9330   -0.9400    0.7400 c3        1 FUG      0.102700
     20 O41         1.2960    0.7190   -0.9830 os        1 FUG     -0.435900
     21 C41         2.0990    0.5930   -2.0950 c         1 FUG      0.655300
     22 O4A         2.6280   -0.5040   -2.3110 o         1 FUG     -0.579000
     23 C42         2.1740    1.8290   -2.8640 ce        1 FUG     -0.279200
     24 C43         2.8250    1.8820   -4.0440 cf        1 FUG      0.015000
     25 C44         2.9080    3.0780   -4.8350 cf        1 FUG     -0.246000
     26 C45         3.4800    3.1780   -6.0560 ce        1 FUG     -0.004000
     27 C46         4.1170    2.1210   -6.7870 ce        1 FUG     -0.251000
     28 C47         4.6140    2.2390   -8.0400 cf        1 FUG     -0.010000
     29 C48         4.5960    3.4110   -8.8700 cf        1 FUG     -0.233000
     30 C49         5.1070    3.4390  -10.1140 ce        1 FUG     -0.123200
     31 C4A         5.0810    4.6780  -10.9890 c         1 FUG      0.885800
     32 O4B         5.5940    4.5690  -12.1390 o         1 FUG     -0.823300
     33 O4C         4.5590    5.7340  -10.5330 o         1 FUG     -0.823300
     34 H51        -0.5540   -1.6040    0.5670 hc        1 FUG      0.053200
     35 H52        -0.8480   -0.7700   -1.0230 hc        1 FUG      0.053200
     36 H4          1.5850   -1.3380   -0.6030 h1        1 FUG      0.084700
     37 H3          1.6050   -1.1030    1.8530 h1        1 FUG      0.053700
     38 H2          1.1650    1.9140    1.2760 hc        1 FUG      0.095700
     39 H61        -0.9470    1.4330    0.1140 hc        1 FUG      0.053200
     40 H62        -2.1560    0.2840    0.8310 hc        1 FUG      0.053200
     41 HOB        -1.5250   -0.6520    2.9350 ho        1 FUG      0.396000
     42 H111       -0.9770    2.8340    2.2270 hc        1 FUG      0.044700
     43 H112       -0.8350    1.9920    3.8340 hc        1 FUG      0.044700
     44 H113       -2.2760    1.6930    2.7760 hc        1 FUG      0.044700
     45 H22         1.0120    3.4720    3.2550 h1        1 FUG      0.083700
     46 H231        0.9410    2.3810    5.8320 hc        1 FUG      0.062200
     47 H232        2.7220    2.6820    5.6700 hc        1 FUG      0.062200
     48 H24         1.6630    5.1410    4.7780 ha        1 FUG      0.129000
     49 H2A1        2.4550    0.5190    5.1400 hc        1 FUG      0.052367
     50 H2A2        1.1650   -0.4560    4.3020 hc        1 FUG      0.052367
     51 H2A3        2.8710   -0.4410    3.6600 hc        1 FUG      0.052367
     52 H2B1        0.9440    4.5570    8.9540 hc        1 FUG      0.038867
     53 H2B2        1.8580    3.2580    8.0770 hc        1 FUG      0.038867
     54 H2B3        0.0650    3.3990    7.8710 hc        1 FUG      0.038867
     55 H2C1        1.8110    6.6740    7.8620 hc        1 FUG      0.038867
     56 H2C2        0.0320    6.5350    7.5470 hc        1 FUG      0.038867
     57 H2C3        1.1630    6.9520    6.1920 hc        1 FUG      0.038867
     58 H311        3.7270   -1.2280   -0.3220 h1        1 FUG      0.039033
     59 H312        3.7760   -1.8140    1.4200 h1        1 FUG      0.039033
     60 H313        4.9770   -0.5490    0.8410 h1        1 FUG      0.039033
     61 H42         1.6690    2.7010   -2.4230 ha        1 FUG      0.148000
     62 H43         2.4520    3.9800   -4.3890 ha        1 FUG      0.122000
     63 H44         3.3160    0.9710   -4.4350 ha        1 FUG      0.139000
     64 H45         4.2010    1.1460   -6.2780 ha        1 FUG      0.112000
     65 H46         3.4620    4.1680   -6.5540 ha        1 FUG      0.139000
     66 H47         4.1390    4.3340   -8.4720 ha        1 FUG      0.148000
     67 H48         5.0870    1.3440   -8.4910 ha        1 FUG      0.107000
     68 H49         5.5760    2.5560  -10.5750 ha        1 FUG      0.101000
@<TRIPOS>BOND
     1    1    2 1   
     2    1    6 1   
     3    1   34 1   
     4    1   35 1   
     5    2    3 1   
     6    2   20 1   
     7    2   36 1   
     8    3    4 1   
     9    3   18 1   
    10    3   37 1   
    11    4    5 1   
    12    4    9 1   
    13    4   38 1   
    14    5    6 1   
    15    5    7 1   
    16    5    8 1   
    17    6   39 1   
    18    6   40 1   
    19    7   41 1   
    20    8   42 1   
    21    8   43 1   
    22    8   44 1   
    23    9   10 1   
    24    9   14 1   
    25    9   15 1   
    26   10   11 1   
    27   10   15 1   
    28   10   45 1   
    29   11   12 1   
    30   11   46 1   
    31   11   47 1   
    32   12   13 2   
    33   12   48 1   
    34   13   16 1   
    35   13   17 1   
    36   14   49 1   
    37   14   50 1   
    38   14   51 1   
    39   16   52 1   
    40   16   53 1   
    41   16   54 1   
    42   17   55 1   
    43   17   56 1   
    44   17   57 1   
    45   18   19 1   
    46   19   58 1   
    47   19   59 1   
    48   19   60 1   
    49   20   21 1   
    50   21   22 2   
    51   21   23 1   
    52   23   24 2   
    53   23   61 1   
    54   24   25 1   
    55   24   63 1   
    56   25   26 2   
    57   25   62 1   
    58   26   27 1   
    59   26   65 1   
    60   27   28 2   
    61   27   64 1   
    62   28   29 1   
    63   28   67 1   
    64   29   30 2   
    65   29   66 1   
    66   30   31 1   
    67   30   68 1   
    68   31   32 1   
    69   31   33 1   
@<TRIPOS>SUBSTRUCTURE
     1 FUG         1 TEMP              0 ****  ****    0 ROOT
