@<TRIPOS>MOLECULE
molecule
   68    69     1     0     0
SMALL
bcc


@<TRIPOS>ATOM
      1 C5           0.0000     0.0000     0.0000 c3         1 FUG      -0.091400
      2 C4           1.5300     0.0000     0.0000 c3         1 FUG       0.095100
      3 C3           2.0410     0.0000     1.4420 c3         1 FUG       0.142100
      4 C2           1.5300     1.2490     2.1640 c3         1 FUG      -0.028700
      5 C1           0.0000     1.2480     2.1650 c3         1 FUG       0.156800
      6 C6          -0.5100     1.2490     0.7220 c3         1 FUG      -0.102400
      7 O11         -0.4760     0.0810     2.8380 oh         1 FUG      -0.607800
      8 C11         -0.5100     2.4980     2.8870 c3         1 FUG      -0.127100
      9 C21          2.0410     1.2480     3.6070 cx         1 FUG       0.070800
     10 C22          2.0980     2.5880     4.3430 cx         1 FUG       0.006100
     11 C23          1.8270     2.5870     5.8490 c3         1 FUG      -0.084200
     12 C24          1.8730     4.0010     6.3680 c2         1 FUG      -0.496200
     13 C25          0.8530     4.4910     7.0300 c2         1 FUG       0.012600
     14 C2A          1.7140    -0.0020     4.4260 c3         1 FUG      -0.062100
     15 O2A          3.2730     1.9180     3.8770 op         1 FUG      -0.336600
     16 C2B         -0.3660     3.6380     7.2720 c3         1 FUG      -0.092900
     17 C2C          0.8990     5.9050     7.5490 c3         1 FUG      -0.092900
     18 O31          3.4690    -0.0000     1.4430 os         1 FUG      -0.381600
     19 C31          3.8830    -1.3690     1.4420 c3         1 FUG       0.110700
     20 O41          2.0060     1.1670    -0.6730 os         1 FUG      -0.380900
     21 C41          2.1360     0.8410    -1.9760 c          1 FUG       0.639300
     22 O4A          1.8580    -0.2840    -2.3510 o          1 FUG      -0.593000
     23 C42          2.5960     1.8050    -2.9070 ce         1 FUG      -0.308200
     24 C43          2.7260     1.4770    -4.2190 cf         1 FUG       0.020000
     25 C44          3.1840     2.4360    -5.1440 cf         1 FUG      -0.253000
     26 C45          3.3150     2.1070    -6.4580 ce         1 FUG      -0.013000
     27 C46          3.7720     3.0660    -7.3830 ce         1 FUG      -0.255000
     28 C47          3.9030     2.7370    -8.6970 cf         1 FUG      -0.012000
     29 C48          4.3600     3.6970    -9.6220 cf         1 FUG      -0.228000
     30 C49          4.4910     3.3670   -10.9340 ce         1 FUG      -0.081200
     31 C4A          4.9510     4.3330   -11.8640 c          1 FUG       0.848800
     32 O4B          5.0800     4.0060   -13.1670 o          1 FUG      -0.828300
     33 O4C          5.2280     5.4560   -11.4880 o          1 FUG      -0.828300
     34 H51         -0.3600    -0.8840     0.5130 hc         1 FUG       0.060700
     35 H52         -0.3590     0.0030    -1.0220 hc         1 FUG       0.060700
     36 H4           1.8890    -0.8870    -0.5080 h1         1 FUG       0.096700
     37 H3           1.6750    -0.8830     1.9520 h1         1 FUG       0.063700
     38 H2           1.8880     2.1320     1.6490 hc         1 FUG       0.099700
     39 H61         -0.1450     2.1330     0.2120 hc         1 FUG       0.053700
     40 H62         -1.5930     1.2470     0.7230 hc         1 FUG       0.053700
     41 HOB         -1.4030     0.1640     2.9920 ho         1 FUG       0.400000
     42 H111        -0.5430     2.3110     3.9530 hc         1 FUG       0.042033
     43 H112         0.1570     3.3280     2.6870 hc         1 FUG       0.042033
     44 H113        -1.5040     2.7400     2.5310 hc         1 FUG       0.042033
     45 H22          1.7990     3.4460     3.7520 h1         1 FUG       0.094700
     46 H231         2.5820     1.9940     6.3510 hc         1 FUG       0.072200
     47 H232         0.8480     2.1640     6.0410 hc         1 FUG       0.072200
     48 H24          1.3360     3.6930     5.4790 ha         1 FUG       0.345000
     49 H2A1         2.5090    -0.1860     5.1390 hc         1 FUG       0.047367
     50 H2A2         0.7810     0.1460     4.9570 hc         1 FUG       0.047367
     51 H2A3         1.6200    -0.8540     3.7630 hc         1 FUG       0.047367
     52 H2B1        -1.0340     4.1480     7.9560 hc         1 FUG       0.049700
     53 H2B2        -0.8760     3.4620     6.3320 hc         1 FUG       0.049700
     54 H2B3        -0.0650     2.6900     7.7010 hc         1 FUG       0.049700
     55 H2C1         0.1910     6.5140     7.0000 hc         1 FUG       0.049700
     56 H2C2         1.8970     6.3050     7.4180 hc         1 FUG       0.049700
     57 H2C3         0.6420     5.9120     8.6010 hc         1 FUG       0.049700
     58 H311         3.0770    -1.9900     1.0690 h1         1 FUG       0.031700
     59 H312         4.7510    -1.4840     0.8040 h1         1 FUG       0.031700
     60 H313         4.1340    -1.6710     2.4510 h1         1 FUG       0.031700
     61 H42          2.8440     2.8060    -2.5730 ha         1 FUG       0.141000
     62 H43          2.4790     0.4770    -4.5540 ha         1 FUG       0.139000
     63 H44          3.4310     3.4360    -4.8090 ha         1 FUG       0.135000
     64 H45          3.0670     1.1070    -6.7930 ha         1 FUG       0.117000
     65 H46          4.0190     4.0660    -7.0480 ha         1 FUG       0.138000
     66 H47          3.6560     1.7360    -9.0320 ha         1 FUG       0.111000
     67 H48          4.6060     4.6970    -9.2870 ha         1 FUG       0.159000
     68 H49          4.2450     2.3670   -11.2680 ha         1 FUG       0.105000
@<TRIPOS>BOND
     1     1     2 1
     2     1     6 1
     3     1    34 1
     4     1    35 1
     5     2     3 1
     6     2    20 1
     7     2    36 1
     8     3     4 1
     9     3    18 1
    10     3    37 1
    11     4     5 1
    12     4     9 1
    13     4    38 1
    14     5     6 1
    15     5     7 1
    16     5     8 1
    17     6    39 1
    18     6    40 1
    19     7    41 1
    20     8    42 1
    21     8    43 1
    22     8    44 1
    23     9    10 1
    24     9    14 1
    25     9    15 1
    26    10    11 1
    27    10    15 1
    28    10    45 1
    29    11    12 1
    30    11    46 1
    31    11    47 1
    32    12    13 2
    33    12    48 1
    34    13    16 1
    35    13    17 1
    36    14    49 1
    37    14    50 1
    38    14    51 1
    39    16    52 1
    40    16    53 1
    41    16    54 1
    42    17    55 1
    43    17    56 1
    44    17    57 1
    45    18    19 1
    46    19    58 1
    47    19    59 1
    48    19    60 1
    49    20    21 1
    50    21    22 2
    51    21    23 1
    52    23    24 2
    53    23    61 1
    54    24    25 1
    55    24    62 1
    56    25    26 2
    57    25    63 1
    58    26    27 1
    59    26    64 1
    60    27    28 2
    61    27    65 1
    62    28    29 1
    63    28    66 1
    64    29    30 2
    65    29    67 1
    66    30    31 1
    67    30    68 1
    68    31    32 1
    69    31    33 1
@<TRIPOS>SUBSTRUCTURE
     1 FUG         1 TEMP              0 ****  ****    0 ROOT
