@<TRIPOS>MOLECULE
molecule
   81    85     1     0     0
SMALL
bcc


@<TRIPOS>ATOM
      1 C1           0.0000     0.0000     0.0000 c3         1 FUK      -0.090100
      2 C2           1.5300     0.0000     0.0000 c3         1 FUK       0.166500
      3 C3           2.0400     0.0000     1.4430 c3         1 FUK       0.165800
      4 N4           3.5090     0.0390     1.4390 n3         1 FUK      -0.705600
      5 C5           4.0410    -0.0360     2.8070 c3         1 FUK       0.062800
      6 C6           3.9230    -1.4490     3.3160 c          1 FUK       0.671100
      7 C10          5.1820    -2.9970     6.4280 c3         1 FUK      -0.121300
      8 C11          4.2400    -3.4460     7.5480 c3         1 FUK      -0.077100
      9 C12          6.4770    -3.8100     6.4650 c3         1 FUK      -0.077100
     10 C13          5.4830    -1.5190     6.5540 ca         1 FUK       0.397600
     11 C15          6.2410     0.4670     7.4490 ca         1 FUK       0.427200
     12 C16          5.8190     1.1740     6.3400 ca         1 FUK      -0.194600
     13 C19          6.0260     2.6650     6.2630 c3         1 FUK       0.250700
     14 C21          7.4300     2.9540     5.7990 ca         1 FUK      -0.121300
     15 C22          7.6750     3.2250     4.4660 ca         1 FUK      -0.083000
     16 C23          8.9630     3.4910     4.0390 ca         1 FUK      -0.168500
     17 C24         10.0080     3.4850     4.9470 ca         1 FUK       0.140900
     18 C26          9.7610     3.2140     6.2830 ca         1 FUK      -0.168500
     19 C27          8.4720     2.9530     6.7080 ca         1 FUK      -0.083000
     20 C28          4.0010     1.2400     0.7490 c3         1 FUK       0.178500
     21 C31          5.9570    -1.1440     0.8190 c3         1 FUK       0.114000
     22 C35          7.8330    -0.9100    -1.3170 c3         1 FUK       0.147900
     23 C36          7.3850     0.3000    -0.4940 c3         1 FUK       0.114000
     24 C37          7.4120     1.5540    -1.3710 c3         1 FUK      -0.116100
     25 C38          3.4890     1.2390    -0.6940 c3         1 FUK       0.170800
     26 O7           3.3540    -2.2880     2.6490 o          1 FUK      -0.570100
     27 N8           4.4490    -1.7820     4.5100 n          1 FUK      -0.374000
     28 C9           4.4950    -3.1400     5.0620 c3         1 FUK       0.113000
     29 N14          6.0650    -0.8370     7.5230 nb         1 FUK      -0.653000
     30 C17          5.2040     0.4990     5.3000 ca         1 FUK      -0.144000
     31 C18          5.0310    -0.8830     5.4080 ca         1 FUK      -0.064700
     32 O20          5.8240     3.2410     7.5560 oh         1 FUK      -0.598800
     33 F25         11.2670     3.7450     4.5310 f          1 FUK      -0.138900
     34 C29          5.5300     1.2390     0.7480 c3         1 FUK       0.147800
     35 N30          6.0200     0.0740    -0.0010 n3         1 FUK      -0.706600
     36 C33          6.4170    -2.3410    -0.0170 c3         1 FUK       0.147900
     37 O34          7.7350    -2.0890    -0.5140 os         1 FUK      -0.429600
     38 N39          2.0200     1.2000    -0.6910 n7         1 FUK      -0.829200
     39 H41         -0.3610    -0.8570     0.5550 hc         1 FUK       0.040367
     40 H42         -0.3610    -0.0520    -1.0200 hc         1 FUK       0.040367
     41 H40         -0.3610     0.9100     0.4650 hc         1 FUK       0.040367
     42 H43          1.8960    -0.8830    -0.5100 h1         1 FUK       0.041700
     43 H44          1.7050    -0.9000     1.9430 h1         1 FUK       0.049700
     44 H45          1.6580     0.8720     1.9600 h1         1 FUK       0.049700
     45 H46          3.4770     0.6280     3.4500 h1         1 FUK       0.066700
     46 H47          5.0830     0.2610     2.8060 h1         1 FUK       0.066700
     47 H51          4.7510    -3.3740     8.5010 hc         1 FUK       0.045533
     48 H52          3.3630    -2.8090     7.5600 hc         1 FUK       0.045533
     49 H50          3.9390    -4.4720     7.3770 hc         1 FUK       0.045533
     50 H55          6.2580    -4.8490     6.2490 hc         1 FUK       0.045533
     51 H53          7.1670    -3.4250     5.7240 hc         1 FUK       0.045533
     52 H54          6.9240    -3.7330     7.4490 hc         1 FUK       0.045533
     53 H56          6.7240     0.9890     8.2660 h4         1 FUK       0.041100
     54 H58          5.3190     3.0930     5.5620 h1         1 FUK       0.043700
     55 H60          6.8570     3.2290     3.7560 ha         1 FUK       0.140500
     56 H61          9.1550     3.7030     2.9940 ha         1 FUK       0.147500
     57 H62         10.5770     3.2110     6.9950 ha         1 FUK       0.147500
     58 H63          8.2790     2.7410     7.7530 ha         1 FUK       0.140500
     59 H64          3.6350     2.1230     1.2590 h1         1 FUK       0.033700
     60 H67          4.9360    -1.3060     1.1450 h1         1 FUK       0.080700
     61 H74          8.8600    -0.7720    -1.6310 h1         1 FUK       0.053700
     62 H73          7.1930    -1.0120    -2.1850 h1         1 FUK       0.053700
     63 H75          8.0550     0.4290     0.3480 h1         1 FUK       0.080700
     64 H76          8.2640     1.5100    -2.0380 hc         1 FUK       0.040867
     65 H77          6.5000     1.6050    -1.9550 hc         1 FUK       0.040867
     66 H78          7.4890     2.4330    -0.7430 hc         1 FUK       0.040867
     67 H80          3.8240     2.1390    -1.1960 h1         1 FUK       0.051200
     68 H79          3.8710     0.3670    -1.2120 h1         1 FUK       0.051200
     69 H48          5.0950    -3.7730     4.4180 h1         1 FUK       0.069200
     70 H49          3.4860    -3.5110     5.1990 h1         1 FUK       0.069200
     71 H57          4.8640     1.0320     4.4200 ha         1 FUK       0.144000
     72 H59          5.1320     3.8800     7.5100 ho         1 FUK       0.412000
     73 H65          5.8910     1.1900     1.7680 h1         1 FUK       0.040200
     74 H66          5.8910     2.1470     0.2810 h1         1 FUK       0.040200
     75 H71          5.7390    -2.4810    -0.8500 h1         1 FUK       0.053700
     76 H72          6.4280    -3.2300     0.6010 h1         1 FUK       0.053700
     77 H81          1.6840     1.2040    -1.6330 hn         1 FUK       0.355800
     78 C32          6.8700    -0.9900     2.0360 c3         1 FUK      -0.116100
     79 H68          7.8770    -1.2920     1.7730 hc         1 FUK       0.040867
     80 H69          6.5050    -1.6130     2.8430 hc         1 FUK       0.040867
     81 H70          6.8760     0.0460     2.3550 hc         1 FUK       0.040867
@<TRIPOS>BOND
     1    38    25 1
     2    38     2 1
     3     1     2 1
     4    25    20 1
     5     2     3 1
     6    20    34 1
     7    20     4 1
     8     3     4 1
     9    34    35 1
    10     4     5 1
    11    78    21 1
    12    35    21 1
    13    35    23 1
    14    21    36 1
    15     5     6 1
    16    23    24 1
    17    23    22 1
    18    26     6 2
    19     6    27 1
    20    36    37 1
    21    37    22 1
    22    27    28 1
    23    27    31 1
    24    28     7 1
    25    32    13 1
    26    30    31 ar
    27    30    12 ar
    28    31    10 ar
    29    19    18 ar
    30    19    14 ar
    31    18    17 ar
    32    13    12 1
    33    13    14 1
    34    12    11 ar
    35     7    10 1
    36     7     8 1
    37     7     9 1
    38    14    15 ar
    39    10    29 ar
    40    17    33 1
    41    17    16 ar
    42    11    29 ar
    43    15    16 ar
    44     1    39 1
    45     1    40 1
    46     1    41 1
    47     2    42 1
    48     3    43 1
    49     3    44 1
    50     5    45 1
    51     5    46 1
    52     8    47 1
    53     8    48 1
    54     8    49 1
    55     9    50 1
    56     9    51 1
    57     9    52 1
    58    11    53 1
    59    13    54 1
    60    15    55 1
    61    16    56 1
    62    18    57 1
    63    19    58 1
    64    20    59 1
    65    21    60 1
    66    22    61 1
    67    22    62 1
    68    23    63 1
    69    24    64 1
    70    24    65 1
    71    24    66 1
    72    25    67 1
    73    25    68 1
    74    28    69 1
    75    28    70 1
    76    30    71 1
    77    32    72 1
    78    34    73 1
    79    34    74 1
    80    78    79 1
    81    78    80 1
    82    78    81 1
    83    36    75 1
    84    36    76 1
    85    38    77 1
@<TRIPOS>SUBSTRUCTURE
     1 FUK         1 TEMP              0 ****  ****    0 ROOT
