@<TRIPOS>MOLECULE
FUK
   81    85     1     0     0
SMALL
bcc


@<TRIPOS>ATOM
      1 C1           0.0000     0.0000     0.0000 c3         1 FUK       0.006900
      2 C2           1.5300     0.0000     0.0000 c3         1 FUK       0.119500
      3 C3           2.0400     0.0000     1.4430 c3         1 FUK       0.139800
      4 N4           3.5090     0.0390     1.4390 n3         1 FUK      -0.495600
      5 C5           4.0410    -0.0360     2.8070 c3         1 FUK       0.013800
      6 C6           3.9230    -1.4490     3.3160 c          1 FUK       0.581100
      7 C10          5.1820    -2.9970     6.4280 c3         1 FUK      -0.113300
      8 C11          4.2400    -3.4460     7.5480 c3         1 FUK       0.014900
      9 C12          6.4770    -3.8100     6.4650 c3         1 FUK       0.014900
     10 C13          5.4830    -1.5190     6.5540 ca         1 FUK       0.338600
     11 C15          6.2410     0.4670     7.4490 ca         1 FUK       0.399200
     12 C16          5.8190     1.1740     6.3400 ca         1 FUK      -0.197600
     13 C19          6.0260     2.6650     6.2630 c3         1 FUK       0.317700
     14 C21          7.4300     2.9540     5.7990 ca         1 FUK      -0.135300
     15 C22          7.6750     3.2250     4.4660 ca         1 FUK      -0.055000
     16 C23          8.9630     3.4910     4.0390 ca         1 FUK      -0.134500
     17 C24         10.0080     3.4850     4.9470 ca         1 FUK       0.112900
     18 C26          9.7610     3.2140     6.2830 ca         1 FUK      -0.134500
     19 C27          8.4720     2.9530     6.7080 ca         1 FUK      -0.055000
     20 C28          4.0010     1.2400     0.7490 c3         1 FUK       0.129500
     21 C31          5.9570    -1.1440     0.8190 c3         1 FUK       0.049500
     22 C35          7.8330    -0.9100    -1.3170 c3         1 FUK       0.220900
     23 C36          7.3850     0.3000    -0.4940 c3         1 FUK       0.049500
     24 C37          7.4120     1.5540    -1.3710 c3         1 FUK      -0.032600
     25 C38          3.4890     1.2390    -0.6940 c3         1 FUK       0.146800
     26 O7           3.3540    -2.2880     2.6490 o          1 FUK      -0.610100
     27 N8           4.4490    -1.7820     4.5100 n          1 FUK       0.023000
     28 C9           4.4950    -3.1400     5.0620 c3         1 FUK       0.041000
     29 N14          6.0650    -0.8370     7.5230 nb         1 FUK      -0.520000
     30 C17          5.2040     0.4990     5.3000 ca         1 FUK      -0.135000
     31 C18          5.0310    -0.8830     5.4080 ca         1 FUK      -0.190700
     32 O20          5.8240     3.2410     7.5560 oh         1 FUK      -0.580800
     33 F25         11.2670     3.7450     4.5310 f          1 FUK      -0.126900
     34 C29          5.5300     1.2390     0.7480 c3         1 FUK       0.111800
     35 N30          6.0200     0.0740    -0.0010 n3         1 FUK      -0.507600
     36 C33          6.4170    -2.3410    -0.0170 c3         1 FUK       0.220900
     37 O34          7.7350    -2.0890    -0.5140 os         1 FUK      -0.414600
     38 N39          2.0200     1.2000    -0.6910 n7         1 FUK      -0.591200
     39 H41         -0.3610    -0.8570     0.5550 hc         1 FUK       0.006367
     40 H42         -0.3610    -0.0520    -1.0200 hc         1 FUK       0.006367
     41 H40         -0.3610     0.9100     0.4650 hc         1 FUK       0.006367
     42 H43          1.8960    -0.8830    -0.5100 h1         1 FUK       0.023700
     43 H44          1.7050    -0.9000     1.9430 h1         1 FUK       0.027200
     44 H45          1.6580     0.8720     1.9600 h1         1 FUK       0.027200
     45 H46          3.4770     0.6280     3.4500 h1         1 FUK       0.053700
     46 H47          5.0830     0.2610     2.8060 h1         1 FUK       0.053700
     47 H51          4.7510    -3.3740     8.5010 hc         1 FUK       0.011867
     48 H52          3.3630    -2.8090     7.5600 hc         1 FUK       0.011867
     49 H50          3.9390    -4.4720     7.3770 hc         1 FUK       0.011867
     50 H55          6.2580    -4.8490     6.2490 hc         1 FUK       0.011867
     51 H53          7.1670    -3.4250     5.7240 hc         1 FUK       0.011867
     52 H54          6.9240    -3.7330     7.4490 hc         1 FUK       0.011867
     53 H56          6.7240     0.9890     8.2660 h4         1 FUK      -0.000900
     54 H58          5.3190     3.0930     5.5620 h1         1 FUK       0.005700
     55 H60          6.8570     3.2290     3.7560 ha         1 FUK       0.112500
     56 H61          9.1550     3.7030     2.9940 ha         1 FUK       0.120500
     57 H62         10.5770     3.2110     6.9950 ha         1 FUK       0.120500
     58 H63          8.2790     2.7410     7.7530 ha         1 FUK       0.112500
     59 H64          3.6350     2.1230     1.2590 h1         1 FUK       0.016700
     60 H67          4.9360    -1.3060     1.1450 h1         1 FUK       0.066200
     61 H74          8.8600    -0.7720    -1.6310 h1         1 FUK       0.014700
     62 H73          7.1930    -1.0120    -2.1850 h1         1 FUK       0.014700
     63 H75          8.0550     0.4290     0.3480 h1         1 FUK       0.066200
     64 H76          8.2640     1.5100    -2.0380 hc         1 FUK       0.014033
     65 H77          6.5000     1.6050    -1.9550 hc         1 FUK       0.014033
     66 H78          7.4890     2.4330    -0.7430 hc         1 FUK       0.014033
     67 H80          3.8240     2.1390    -1.1960 h1         1 FUK       0.024200
     68 H79          3.8710     0.3670    -1.2120 h1         1 FUK       0.024200
     69 H48          5.0950    -3.7730     4.4180 h1         1 FUK       0.041200
     70 H49          3.4860    -3.5110     5.1990 h1         1 FUK       0.041200
     71 H57          4.8640     1.0320     4.4200 ha         1 FUK       0.134000
     72 H59          5.1320     3.8800     7.5100 ho         1 FUK       0.397000
     73 H65          5.8910     1.1900     1.7680 h1         1 FUK       0.026200
     74 H66          5.8910     2.1470     0.2810 h1         1 FUK       0.026200
     75 H71          5.7390    -2.4810    -0.8500 h1         1 FUK       0.014700
     76 H72          6.4280    -3.2300     0.6010 h1         1 FUK       0.014700
     77 H81          1.6840     1.2040    -1.6330 hn         1 FUK       0.256800
     78 C32          6.8700    -0.9900     2.0360 c3         1 FUK      -0.032600
     79 H68          7.8770    -1.2920     1.7730 hc         1 FUK       0.014033
     80 H69          6.5050    -1.6130     2.8430 hc         1 FUK       0.014033
     81 H70          6.8760     0.0460     2.3550 hc         1 FUK       0.014033
@<TRIPOS>BOND
     1     1     2 1   
     2     1    39 1   
     3     1    40 1   
     4     1    41 1   
     5     2     3 1   
     6     2    38 1   
     7     2    42 1   
     8     3     4 1   
     9     3    43 1   
    10     3    44 1   
    11     4     5 1   
    12     4    20 1   
    13     5     6 1   
    14     5    45 1   
    15     5    46 1   
    16     6    26 2   
    17     6    27 1   
    18     7     8 1   
    19     7     9 1   
    20     7    10 1   
    21     7    28 1   
    22     8    47 1   
    23     8    48 1   
    24     8    49 1   
    25     9    50 1   
    26     9    51 1   
    27     9    52 1   
    28    10    29 ar  
    29    10    31 ar  
    30    11    12 ar  
    31    11    29 ar  
    32    11    53 1   
    33    12    13 1   
    34    12    30 ar  
    35    13    14 1   
    36    13    32 1   
    37    13    54 1   
    38    14    15 ar  
    39    14    19 ar  
    40    15    16 ar  
    41    15    55 1   
    42    16    17 ar  
    43    16    56 1   
    44    17    18 ar  
    45    17    33 1   
    46    18    19 ar  
    47    18    57 1   
    48    19    58 1   
    49    20    25 1   
    50    20    34 1   
    51    20    59 1   
    52    21    35 1   
    53    21    36 1   
    54    21    60 1   
    55    21    78 1   
    56    22    23 1   
    57    22    37 1   
    58    22    61 1   
    59    22    62 1   
    60    23    24 1   
    61    23    35 1   
    62    23    63 1   
    63    24    64 1   
    64    24    65 1   
    65    24    66 1   
    66    25    38 1   
    67    25    67 1   
    68    25    68 1   
    69    27    28 1   
    70    27    31 1   
    71    28    69 1   
    72    28    70 1   
    73    30    31 ar  
    74    30    71 1   
    75    32    72 1   
    76    34    35 1   
    77    34    73 1   
    78    34    74 1   
    79    36    37 1   
    80    36    75 1   
    81    36    76 1   
    82    38    77 1   
    83    78    79 1   
    84    78    80 1   
    85    78    81 1   
@<TRIPOS>SUBSTRUCTURE
     1 FUK         1 TEMP              0 ****  ****    0 ROOT
