@<TRIPOS>MOLECULE
FUM
   10     9     1     0     0
SMALL
bcc


@<TRIPOS>ATOM
      1 O1          0.1380    0.2790    0.1520 o         1 FUM     -0.885800
      2 C2          1.3570   -0.0900    0.0960 c         1 FUM      0.884800
      3 O3          1.9110   -0.6560    1.0910 o         1 FUM     -0.885800
      4 C4          2.1170    0.1620   -1.1730 ce        1 FUM     -0.219200
      5 C5          3.3950   -0.1620   -1.3850 cf        1 FUM     -0.219200
      6 C6          4.1550    0.0900   -2.6540 c         1 FUM      0.884800
      7 O7          3.6000    0.6510   -3.6510 o         1 FUM     -0.885800
      8 O8          5.3760   -0.2740   -2.7080 o         1 FUM     -0.885800
      9 H4          1.5310    0.6560   -1.9650 ha        1 FUM      0.105000
     10 H5          3.9820   -0.6560   -0.5930 ha        1 FUM      0.105000
@<TRIPOS>BOND
     1    1    2 1   
     2    2    3 1   
     3    2    4 1   
     4    4    5 2   
     5    4    9 1   
     6    5    6 1   
     7    5   10 1   
     8    6    7 1   
     9    6    8 1   
@<TRIPOS>SUBSTRUCTURE
     1 FUM         1 TEMP              0 ****  ****    0 ROOT
