@<TRIPOS>MOLECULE
molecule
   10     9     1     0     0
SMALL
bcc


@<TRIPOS>ATOM
      1 O1           0.0000     0.0000     0.0000 o          1 FUM      -0.887550
      2 C2           1.3470     0.0000     0.0000 c          1 FUM       0.878800
      3 O3           1.9550     0.0000     1.0510 o          1 FUM      -0.887550
      4 C4           2.0850    -0.0000    -1.2780 ce         1 FUM      -0.218200
      5 C5           3.4280    -0.0000    -1.2800 cf         1 FUM      -0.218200
      6 C6           4.1650    -0.0000    -2.5580 c          1 FUM       0.878800
      7 O7           3.5580    -0.0000    -3.6090 o          1 FUM      -0.887550
      8 O8           5.5120    -0.0000    -2.5580 o          1 FUM      -0.887550
      9 H4           1.5420    -0.0000    -2.2160 ha         1 FUM       0.115000
     10 H5           3.9700     0.0000    -0.3420 ha         1 FUM       0.115000
@<TRIPOS>BOND
     1     1     2 1
     2     2     3 1
     3     2     4 1
     4     4     5 2
     5     4     9 1
     6     5     6 1
     7     5    10 1
     8     6     7 1
     9     6     8 1
@<TRIPOS>SUBSTRUCTURE
     1 FUM         1 TEMP              0 ****  ****    0 ROOT
