@<TRIPOS>MOLECULE
FUN
   32    32     1     0     0
SMALL
bcc


@<TRIPOS>ATOM
      1 N1          0.4930    0.9210    1.0450 n3        1 FUN     -1.099400
      2 S1          1.6850   -0.1670   -0.5210 s4        1 FUN      1.694300
      3 O1          2.4960   -0.7740    0.4000 o         1 FUN     -0.477900
      4 O2          0.6370   -0.8850   -1.0260 o         1 FUN     -0.477900
      5 C1          2.1630    1.1160   -1.2030 ca        1 FUN     -0.732500
      6 C2          1.9370    1.5820   -2.5330 ca        1 FUN      0.219400
      7 CL1         1.1510    0.5530   -3.6390 cl        1 FUN     -0.071400
      8 C3          2.3440    2.8100   -2.9780 ca        1 FUN     -0.268000
      9 C4          3.0250    3.7330   -2.1000 ca        1 FUN      0.336600
     10 N2          3.4190    4.9490   -2.5020 nh        1 FUN     -0.677600
     11 C5          3.2360    5.4490   -3.8430 c3        1 FUN      0.171500
     12 C6          3.7440    6.8330   -3.9950 cc        1 FUN      0.194000
     13 C7          4.6490    7.6210   -3.3120 cd        1 FUN     -0.216300
     14 C8          4.6900    8.8920   -4.0030 cd        1 FUN     -0.258300
     15 C9          3.8110    8.7970   -5.0620 cc        1 FUN      0.249600
     16 O3          3.2080    7.5390   -5.0820 os        1 FUN     -0.364800
     17 C10         3.2740    3.2870   -0.7450 ca        1 FUN     -0.233600
     18 C11         2.9140    2.0300   -0.3750 ca        1 FUN      0.010000
     19 C12         3.8860    4.1930    0.3370 c         1 FUN      0.930200
     20 O4          3.6790    3.8330    1.5220 o         1 FUN     -0.794800
     21 O5          4.5200    5.2230   -0.0240 o         1 FUN     -0.794800
     22 HN11       -0.4910    0.7760    0.9150 hn        1 FUN      0.411133
     23 HN12        0.7660    0.5810    1.9510 hn        1 FUN      0.411133
     24 H3          2.1570    3.1030   -4.0240 ha        1 FUN      0.160000
     25 HN2         3.9130    5.5350   -1.8230 hn        1 FUN      0.525800
     26 H51         2.1380    5.4280   -4.1140 h1        1 FUN      0.073200
     27 H52         3.7840    4.7790   -4.5730 h1        1 FUN      0.073200
     28 H7          5.2230    7.3630   -2.4220 ha        1 FUN      0.188000
     29 H8          5.3040    9.7430   -3.7210 ha        1 FUN      0.170000
     30 H9          3.4900    9.4560   -5.8630 h4        1 FUN      0.056100
     31 H11         3.1930    1.7080    0.6520 ha        1 FUN      0.184000
     32 H13         0.7020    1.9050    0.9900 hn        1 FUN      0.411133
@<TRIPOS>BOND
     1    1   22 1   
     2    1   23 1   
     3    1   32 1   
     4    2    3 1   
     5    2    4 1   
     6    2    5 1   
     7    5    6 ar  
     8    5   18 ar  
     9    6    7 1   
    10    6    8 ar  
    11    8    9 ar  
    12    8   24 1   
    13    9   10 1   
    14    9   17 ar  
    15   10   11 1   
    16   10   25 1   
    17   11   12 1   
    18   11   26 1   
    19   11   27 1   
    20   12   13 2   
    21   12   16 1   
    22   13   14 1   
    23   13   28 1   
    24   14   15 2   
    25   14   29 1   
    26   15   16 1   
    27   15   30 1   
    28   17   18 ar  
    29   17   19 1   
    30   18   31 1   
    31   19   20 1   
    32   19   21 1   
@<TRIPOS>SUBSTRUCTURE
     1 FUN         1 TEMP              0 ****  ****    0 ROOT
