@<TRIPOS>MOLECULE
molecule
   34    35     1     0     0
SMALL
bcc


@<TRIPOS>ATOM
      1 PB           0.0000     0.0000     0.0000 p5         1 FUP       1.193900
      2 O1B          1.4790     0.0000     0.0000 o          1 FUP      -0.828167
      3 O2B         -0.5360     0.0000     1.5190 o          1 FUP      -0.828167
      4 O3B         -0.5380     1.3140    -0.7570 o          1 FUP      -0.828167
      5 O3A         -0.5370    -1.3140    -0.7590 os         1 FUP      -0.646800
      6 PA           0.0320    -1.2500    -2.2620 p5         1 FUP       1.249800
      7 O1A         -0.4620    -0.0220    -2.9240 o          1 FUP      -0.800500
      8 O2A          1.6410    -1.2280    -2.2260 o          1 FUP      -0.800500
      9 O5'         -0.4690    -2.5400    -3.0830 os         1 FUP      -0.536200
     10 C5'          0.0670    -2.4260    -4.4020 c3         1 FUP       0.167400
     11 C4'         -0.3740    -3.6270    -5.2390 c3         1 FUP       0.113100
     12 O4'         -1.8070    -3.6490    -5.3450 os         1 FUP      -0.356600
     13 C3'          0.1930    -3.5090    -6.6660 c3         1 FUP       0.124600
     14 F3'          1.0180    -4.5980    -6.9640 f          1 FUP      -0.271300
     15 C2'         -1.0670    -3.5180    -7.5720 c3         1 FUP      -0.161400
     16 C1'         -2.1250    -4.1740    -6.6510 c3         1 FUP       0.308500
     17 N1          -3.4770    -3.7800    -7.0520 n          1 FUP      -0.340000
     18 C2          -3.7970    -2.4760    -7.1210 c          1 FUP       0.802500
     19 O2          -2.9570    -1.6370    -6.8580 o          1 FUP      -0.618500
     20 N3          -5.0310    -2.0850    -7.4900 ns         1 FUP      -0.567500
     21 C4          -5.9740    -3.0010    -7.7880 c          1 FUP       0.697700
     22 O4          -7.0930    -2.6490    -8.1160 o          1 FUP      -0.714500
     23 C5          -5.6520    -4.3770    -7.7130 cc         1 FUP      -0.388200
     24 C6          -4.4050    -4.7420    -7.3440 cd         1 FUP      -0.049400
     25 H5'1        -0.2960    -1.5140    -4.8610 h1         1 FUP       0.064700
     26 H5'2         1.1490    -2.3990    -4.3520 h1         1 FUP       0.064700
     27 H4'         -0.0280    -4.5460    -4.7820 h1         1 FUP       0.054700
     28 H3'          0.7320    -2.5760    -6.7800 h1         1 FUP       0.088700
     29 H2'1        -0.8990    -4.1210    -8.4560 hc         1 FUP       0.069200
     30 H2'2        -1.3590    -2.5080    -7.8340 hc         1 FUP       0.069200
     31 H1'         -2.0180    -5.2520    -6.6610 h2         1 FUP       0.047700
     32 HN3         -5.2520    -1.1100    -7.5370 hn         1 FUP       0.346500
     33 H5          -6.3960    -5.1290    -7.9470 ha         1 FUP       0.139000
     34 H6          -4.1410    -5.7910    -7.2810 h4         1 FUP       0.134000
@<TRIPOS>BOND
     1     1     2 1
     2     1     3 1
     3     1     4 1
     4     1     5 1
     5     5     6 1
     6     6     7 1
     7     6     8 1
     8     6     9 1
     9     9    10 1
    10    10    11 1
    11    10    25 1
    12    10    26 1
    13    11    12 1
    14    11    13 1
    15    11    27 1
    16    12    16 1
    17    13    14 1
    18    13    15 1
    19    13    28 1
    20    15    16 1
    21    15    29 1
    22    15    30 1
    23    16    17 1
    24    16    31 1
    25    17    18 1
    26    17    24 1
    27    18    19 2
    28    18    20 1
    29    20    21 1
    30    20    32 1
    31    21    22 2
    32    21    23 1
    33    23    24 2
    34    23    33 1
    35    24    34 1
@<TRIPOS>SUBSTRUCTURE
     1 FUP         1 TEMP              0 ****  ****    0 ROOT
