@<TRIPOS>MOLECULE
molecule
   11    10     1     0     0
SMALL
bcc


@<TRIPOS>ATOM
      1 NAA          0.0000     0.0000     0.0000 nz         1 FUS      -0.833500
      2 SAE          1.6560     0.0000     0.0000 s6         1 FUS       1.257800
      3 OAC          2.0570     0.0000     1.3630 o          1 FUS      -0.368800
      4 OAD          2.0580    -0.9980    -0.9280 o          1 FUS      -0.368800
      5 NAB          2.1470     1.4500    -0.6320 nz         1 FUS      -0.833500
      6 H1          -0.3340     0.7590     0.5610 hn         1 FUS       0.524633
      7 H2          -0.3340    -0.8650     0.3770 hn         1 FUS       0.524633
      8 H3           1.7960     1.5440    -1.5640 hn         1 FUS       0.524633
      9 H4           3.1470     1.4860    -0.6470 hn         1 FUS       0.524633
     10 HAA3        -0.3340     0.1060    -0.9380 hn         1 FUS       0.524633
     11 HAB3         1.7670     2.1980    -0.0860 hn         1 FUS       0.524633
@<TRIPOS>BOND
     1     5     2 1
     2     3     2 2
     3     1     2 1
     4     2     4 2
     5     1     6 1
     6     1     7 1
     7     5     8 1
     8     5     9 1
     9    10     1 1
    10    11     5 1
@<TRIPOS>SUBSTRUCTURE
     1 FUS         1 TEMP              0 ****  ****    0 ROOT
