@<TRIPOS>MOLECULE
FUU
   40    42     1     0     0
SMALL
bcc


@<TRIPOS>ATOM
      1 CAI         0.3800    0.4030    1.9430 cc        1 FUU     -0.186300
      2 CAD         1.2320   -0.5730    1.3070 cc        1 FUU     -0.272300
      3 CAF         0.4920   -1.7350    1.1930 cd        1 FUU      0.263600
      4 OAR        -0.7840   -1.5570    1.7200 os        1 FUU     -0.343800
      5 CAY        -0.8310   -0.2290    2.1770 cd        1 FUU      0.193700
      6 CAZ        -2.0490    0.2190    2.7680 cd        1 FUU      0.417400
      7 OAS        -3.1250   -0.6820    2.8650 os        1 FUU     -0.398800
      8 NAN        -2.4040    1.4120    3.2960 nc        1 FUU     -0.323000
      9 NAM        -3.6400    1.3480    3.7490 nc        1 FUU     -0.328000
     10 CAX        -4.1280    0.0960    3.5100 cd        1 FUU      0.573300
     11 NAP        -5.3090   -0.5520    3.8200 n         1 FUU     -0.523400
     12 CAU        -6.5590    0.1350    3.7100 c         1 FUU      0.752100
     13 OAB        -6.6070    1.3150    3.3160 o         1 FUU     -0.565100
     14 NAO        -7.7200   -0.6130    4.0070 n         1 FUU     -0.516900
     15 CAK        -8.9370    0.1200    4.2810 c3        1 FUU      0.114300
     16 CAV        -9.2010    0.3770    5.7380 ca        1 FUU     -0.125300
     17 CAJ        -9.3410   -0.7040    6.6140 ca        1 FUU     -0.114000
     18 CAG        -9.3150    1.6850    6.2190 ca        1 FUU     -0.101000
     19 CAE        -9.5700    1.9180    7.5710 ca        1 FUU     -0.124000
     20 CAH        -9.7020    0.8530    8.4590 ca        1 FUU     -0.129000
     21 CAW        -9.5850   -0.4530    7.9680 ca        1 FUU      0.065100
     22 OAQ        -9.8280   -1.5330    8.8190 os        1 FUU     -0.320900
     23 CAL        -8.6950   -1.9630    9.5590 c3        1 FUU      0.089400
     24 CAT        -7.8180   -2.8910    8.7600 c         1 FUU      0.613100
     25 OAC        -7.7330   -3.0660    7.5420 o         1 FUU     -0.555000
     26 OAA        -6.9910   -3.6360    9.5450 oh        1 FUU     -0.607100
     27 H1          0.6420    1.4310    2.1860 ha        1 FUU      0.180000
     28 H2          2.2570   -0.4050    0.9860 ha        1 FUU      0.169000
     29 H3          0.6740   -2.7300    0.7970 h4        1 FUU      0.059100
     30 H4         -5.2870   -1.5430    3.6960 hn        1 FUU      0.337500
     31 H5         -6.4420   -4.2140    8.9890 ho        1 FUU      0.449000
     32 H6         -9.7790   -0.5100    3.8690 h1        1 FUU      0.083200
     33 H7         -8.9150    1.0960    3.7150 h1        1 FUU      0.083200
     34 H8         -9.2530   -1.7450    6.2640 ha        1 FUU      0.164000
     35 H9         -9.1940    2.5350    5.5290 ha        1 FUU      0.148000
     36 H10        -9.6610    2.9510    7.9390 ha        1 FUU      0.141000
     37 H11        -9.9030    1.0250    9.5260 ha        1 FUU      0.144000
     38 H12        -9.1330   -2.5230   10.4320 h1        1 FUU      0.094700
     39 H13        -8.0750   -1.0990    9.9160 h1        1 FUU      0.094700
     40 HAO2       -7.5960   -1.4170    4.5890 hn        1 FUU      0.303500
@<TRIPOS>BOND
     1    1    2 1
     2    1    5 2
     3    1   27 1
     4    2    3 2
     5    2   28 1
     6    3    4 1
     7    3   29 1
     8    4    5 1
     9    5    6 1
    10    6    7 1
    11    6    8 2
    12    7   10 1
    13    8    9 1
    14    9   10 2
    15   10   11 1
    16   11   12 1
    17   11   30 1
    18   12   13 2
    19   12   14 1
    20   14   15 1
    21   14   40 1
    22   15   16 1
    23   15   32 1
    24   15   33 1
    25   16   17 ar
    26   16   18 ar
    27   17   21 ar
    28   17   34 1
    29   18   19 ar
    30   18   35 1
    31   19   20 ar
    32   19   36 1
    33   20   21 ar
    34   20   37 1
    35   21   22 1
    36   22   23 1
    37   23   24 1
    38   23   38 1
    39   23   39 1
    40   24   25 2
    41   24   26 1
    42   26   31 1
@<TRIPOS>SUBSTRUCTURE
     1 FUU         1 TEMP              0 ****  ****    0 ROOT
