@<TRIPOS>MOLECULE
molecule
   61    65     1     0     0
SMALL
bcc


@<TRIPOS>ATOM
      1 C10          0.0000     0.0000     0.0000 c          1 FUV       0.898600
      2 C15          2.9310    -0.5180     5.6150 c3         1 FUV       0.235300
      3 C14          2.6470    -0.4660     4.1100 c3         1 FUV       0.140300
      4 C02          3.8280     0.0000     0.0000 c3         1 FUV       0.088100
      5 C03          3.9710     0.0000     1.5260 c3         1 FUV       0.114100
      6 C05          2.8960     0.9070     2.1310 c3         1 FUV       0.366300
      7 C07          1.3970     0.4730     0.3100 c3         1 FUV       0.037100
      8 C08          2.4110    -0.4510    -0.3680 c3         1 FUV       0.128100
      9 C17          2.4130     1.9510     5.7150 c3         1 FUV       0.235300
     10 C18          2.1500     1.9070     4.2060 c3         1 FUV       0.140300
     11 C19          1.4110     0.3830     7.3520 ce         1 FUV       0.717800
     12 C21          0.4810    -1.0400     9.0330 c3         1 FUV       0.132500
     13 C22         -1.0350    -0.8120     8.9300 c3         1 FUV       0.142100
     14 C24         -0.6760     1.3840     8.1530 ca         1 FUV       0.154100
     15 C25          0.6950     1.5130     8.0110 ca         1 FUV      -0.202900
     16 C26          1.3680     2.6460     8.4490 ca         1 FUV      -0.088000
     17 C27          0.6350     3.6920     8.9810 ca         1 FUV       0.007400
     18 C29         -0.7450     3.6000     9.0620 ca         1 FUV      -0.108000
     19 C30         -1.4070     2.4580     8.6500 ca         1 FUV      -0.144000
     20 C31         -1.5460    -0.4660    10.3240 c3         1 FUV      -0.074200
     21 C32         -1.0480    -1.5060    11.2930 c2         1 FUV      -0.178200
     22 C33         -0.0640    -2.3170    11.0620 c2         1 FUV      -0.168200
     23 C34          0.7320    -2.3380     9.7800 c3         1 FUV      -0.024200
     24 N13          2.9900     0.8670     3.5960 n3         1 FUV      -0.710600
     25 N16          2.2260     0.5980     6.2630 nh         1 FUV      -0.762600
     26 N20          1.2460    -0.8260     7.8480 n2         1 FUV      -0.722900
     27 O04          5.2650     0.4890     1.8830 oh         1 FUV      -0.603800
     28 O06          1.6050     0.4500     1.7240 os         1 FUV      -0.413600
     29 O09          2.2430    -0.3860    -1.7860 oh         1 FUV      -0.571800
     30 O11         -0.7110    -0.4080     0.8880 o          1 FUV      -0.819300
     31 O12         -0.4570     0.0370    -1.2620 o          1 FUV      -0.819300
     32 O23         -1.2970     0.1940     7.9610 os         1 FUV      -0.319900
     33 Cl1          1.4450     5.1190     9.5490 cl         1 FUV      -0.117400
     34 H1           3.9960    -0.4230     5.7870 h1         1 FUV       0.054450
     35 H2           2.5730    -1.4570     6.0190 h1         1 FUV       0.054450
     36 H3           3.2480    -1.2120     3.6050 h1         1 FUV       0.060950
     37 H4           1.5960    -0.6600     3.9340 h1         1 FUV       0.060950
     38 H5           3.9970     1.0010    -0.3780 h1         1 FUV       0.050700
     39 H6           3.8430    -1.0090     1.8990 h1         1 FUV       0.051700
     40 H7           3.0440     1.9210     1.7820 h2         1 FUV       0.052700
     41 H8           1.5310     1.4840    -0.0560 h1         1 FUV       0.040700
     42 H9           2.2560    -1.4680    -0.0270 h1         1 FUV       0.051700
     43 H10          3.4290     2.2790     5.8970 h1         1 FUV       0.054450
     44 H11          1.7150     2.6330     6.1850 h1         1 FUV       0.054450
     45 H12          1.1060     1.6760     4.0280 h1         1 FUV       0.060950
     46 H13          2.3920     2.8680     3.7690 h1         1 FUV       0.060950
     47 H15          0.8250    -0.2670     9.7110 h1         1 FUV       0.014700
     48 H16         -1.5040    -1.7340     8.6080 h1         1 FUV       0.096700
     49 H17          2.4470     2.7070     8.3810 ha         1 FUV       0.156000
     50 H18         -1.3120     4.4240     9.4800 ha         1 FUV       0.141000
     51 H19         -2.4860     2.3990     8.7180 ha         1 FUV       0.151000
     52 H20         -1.1740     0.5090    10.6150 hc         1 FUV       0.057200
     53 H21         -2.6300    -0.4620    10.3210 hc         1 FUV       0.057200
     54 H22         -1.5480    -1.5820    12.2510 ha         1 FUV       0.114000
     55 H23          0.2040    -3.0240    11.8370 ha         1 FUV       0.116000
     56 H24          1.7870    -2.4260    10.0100 hc         1 FUV       0.061700
     57 H25          0.4150    -3.1750     9.1700 hc         1 FUV       0.061700
     58 H31          5.8670    -0.2340     1.9510 ho         1 FUV       0.397000
     59 H32          2.2760    -1.2560    -2.1470 ho         1 FUV       0.397000
     60 O01          4.7790    -0.9010    -0.5700 oh         1 FUV      -0.619800
     61 H30          5.3340    -0.4320    -1.1710 ho         1 FUV       0.398000
@<TRIPOS>BOND
     1     1     7 1
     2     1    30 1
     3     1    31 1
     4     2     3 1
     5     2    25 1
     6     3    24 1
     7     4     5 1
     8     4     8 1
     9     4    60 1
    10     5     6 1
    11     5    27 1
    12     6    24 1
    13     6    28 1
    14     7     8 1
    15     7    28 1
    16     8    29 1
    17     9    10 1
    18     9    25 1
    19    10    24 1
    20    11    15 1
    21    11    25 1
    22    11    26 2
    23    12    13 1
    24    12    23 1
    25    12    26 1
    26    13    20 1
    27    13    32 1
    28    14    15 ar
    29    14    19 ar
    30    14    32 1
    31    15    16 ar
    32    16    17 ar
    33    17    18 ar
    34    17    33 1
    35    18    19 ar
    36    20    21 1
    37    21    22 2
    38    22    23 1
    39     2    34 1
    40     2    35 1
    41     3    36 1
    42     3    37 1
    43     4    38 1
    44     5    39 1
    45     6    40 1
    46     7    41 1
    47     8    42 1
    48     9    43 1
    49     9    44 1
    50    10    45 1
    51    10    46 1
    52    12    47 1
    53    13    48 1
    54    16    49 1
    55    18    50 1
    56    19    51 1
    57    20    52 1
    58    20    53 1
    59    21    54 1
    60    22    55 1
    61    23    56 1
    62    23    57 1
    63    60    61 1
    64    27    58 1
    65    29    59 1
@<TRIPOS>SUBSTRUCTURE
     1 FUV         1 TEMP              0 ****  ****    0 ROOT
