@<TRIPOS>MOLECULE
FUV
   61    65     1     0     0
SMALL
bcc


@<TRIPOS>ATOM
      1 C10          0.0000     0.0000     0.0000 c          1 FUV       0.977600
      2 C15          2.9310    -0.5180     5.6150 c3         1 FUV       0.156800
      3 C14          2.6470    -0.4660     4.1100 c3         1 FUV       0.127800
      4 C02          3.8280     0.0000     0.0000 c3         1 FUV       0.125100
      5 C03          3.9710     0.0000     1.5260 c3         1 FUV       0.138100
      6 C05          2.8960     0.9070     2.1310 c3         1 FUV       0.329300
      7 C07          1.3970     0.4730     0.3100 c3         1 FUV       0.067100
      8 C08          2.4110    -0.4510    -0.3680 c3         1 FUV       0.163100
      9 C17          2.4130     1.9510     5.7150 c3         1 FUV       0.156800
     10 C18          2.1500     1.9070     4.2060 c3         1 FUV       0.127800
     11 C19          1.4110     0.3830     7.3520 ce         1 FUV       0.554800
     12 C21          0.4810    -1.0400     9.0330 c3         1 FUV       0.119500
     13 C22         -1.0350    -0.8120     8.9300 c3         1 FUV       0.176100
     14 C24         -0.6760     1.3840     8.1530 ca         1 FUV       0.164100
     15 C25          0.6950     1.5130     8.0110 ca         1 FUV      -0.193900
     16 C26          1.3680     2.6460     8.4490 ca         1 FUV      -0.064000
     17 C27          0.6350     3.6920     8.9810 ca         1 FUV      -0.055600
     18 C29         -0.7450     3.6000     9.0620 ca         1 FUV      -0.082000
     19 C30         -1.4070     2.4580     8.6500 ca         1 FUV      -0.122000
     20 C31         -1.5460    -0.4660    10.3240 c3         1 FUV      -0.011200
     21 C32         -1.0480    -1.5060    11.2930 c2         1 FUV      -0.162200
     22 C33         -0.0640    -2.3170    11.0620 c2         1 FUV      -0.147200
     23 C34          0.7320    -2.3380     9.7800 c3         1 FUV       0.038800
     24 N13          2.9900     0.8670     3.5960 n3         1 FUV      -0.532600
     25 N16          2.2260     0.5980     6.2630 nh         1 FUV      -0.390600
     26 N20          1.2460    -0.8260     7.8480 n2         1 FUV      -0.659900
     27 O04          5.2650     0.4890     1.8830 oh         1 FUV      -0.583800
     28 O06          1.6050     0.4500     1.7240 os         1 FUV      -0.387600
     29 O09          2.2430    -0.3860    -1.7860 oh         1 FUV      -0.549800
     30 O11         -0.7110    -0.4080     0.8880 o          1 FUV      -0.875800
     31 O12         -0.4570     0.0370    -1.2620 o          1 FUV      -0.875800
     32 O23         -1.2970     0.1940     7.9610 os         1 FUV      -0.301900
     33 Cl1          1.4450     5.1190     9.5490 cl         1 FUV      -0.036400
     34 H1           3.9960    -0.4230     5.7870 h1         1 FUV       0.029200
     35 H2           2.5730    -1.4570     6.0190 h1         1 FUV       0.029200
     36 H3           3.2480    -1.2120     3.6050 h1         1 FUV       0.034950
     37 H4           1.5960    -0.6600     3.9340 h1         1 FUV       0.034950
     38 H5           3.9970     1.0010    -0.3780 h1         1 FUV       0.018700
     39 H6           3.8430    -1.0090     1.8990 h1         1 FUV       0.025700
     40 H7           3.0440     1.9210     1.7820 h2         1 FUV       0.020700
     41 H8           1.5310     1.4840    -0.0560 h1         1 FUV       0.013700
     42 H9           2.2560    -1.4680    -0.0270 h1         1 FUV       0.018700
     43 H10          3.4290     2.2790     5.8970 h1         1 FUV       0.029200
     44 H11          1.7150     2.6330     6.1850 h1         1 FUV       0.029200
     45 H12          1.1060     1.6760     4.0280 h1         1 FUV       0.034950
     46 H13          2.3920     2.8680     3.7690 h1         1 FUV       0.034950
     47 H15          0.8250    -0.2670     9.7110 h1         1 FUV      -0.002300
     48 H16         -1.5040    -1.7340     8.6080 h1         1 FUV       0.055700
     49 H17          2.4470     2.7070     8.3810 ha         1 FUV       0.126000
     50 H18         -1.3120     4.4240     9.4800 ha         1 FUV       0.110000
     51 H19         -2.4860     2.3990     8.7180 ha         1 FUV       0.121000
     52 H20         -1.1740     0.5090    10.6150 hc         1 FUV       0.027200
     53 H21         -2.6300    -0.4620    10.3210 hc         1 FUV       0.027200
     54 H22         -1.5480    -1.5820    12.2510 ha         1 FUV       0.090000
     55 H23          0.2040    -3.0240    11.8370 ha         1 FUV       0.091000
     56 H24          1.7870    -2.4260    10.0100 hc         1 FUV       0.027700
     57 H25          0.4150    -3.1750     9.1700 hc         1 FUV       0.027700
     58 H31          5.8670    -0.2340     1.9510 ho         1 FUV       0.384000
     59 H32          2.2760    -1.2560    -2.1470 ho         1 FUV       0.381000
     60 O01          4.7790    -0.9010    -0.5700 oh         1 FUV      -0.598800
     61 H30          5.3340    -0.4320    -1.1710 ho         1 FUV       0.386000
@<TRIPOS>BOND
     1     1     7 1   
     2     1    30 1   
     3     1    31 1   
     4     2     3 1   
     5     2    25 1   
     6     2    34 1   
     7     2    35 1   
     8     3    24 1   
     9     3    36 1   
    10     3    37 1   
    11     4     5 1   
    12     4     8 1   
    13     4    38 1   
    14     4    60 1   
    15     5     6 1   
    16     5    27 1   
    17     5    39 1   
    18     6    24 1   
    19     6    28 1   
    20     6    40 1   
    21     7     8 1   
    22     7    28 1   
    23     7    41 1   
    24     8    29 1   
    25     8    42 1   
    26     9    10 1   
    27     9    25 1   
    28     9    43 1   
    29     9    44 1   
    30    10    24 1   
    31    10    45 1   
    32    10    46 1   
    33    11    15 1   
    34    11    25 1   
    35    11    26 2   
    36    12    13 1   
    37    12    23 1   
    38    12    26 1   
    39    12    47 1   
    40    13    20 1   
    41    13    32 1   
    42    13    48 1   
    43    14    15 ar  
    44    14    19 ar  
    45    14    32 1   
    46    15    16 ar  
    47    16    17 ar  
    48    16    49 1   
    49    17    18 ar  
    50    17    33 1   
    51    18    19 ar  
    52    18    50 1   
    53    19    51 1   
    54    20    21 1   
    55    20    52 1   
    56    20    53 1   
    57    21    22 2   
    58    21    54 1   
    59    22    23 1   
    60    22    55 1   
    61    23    56 1   
    62    23    57 1   
    63    27    58 1   
    64    29    59 1   
    65    60    61 1   
@<TRIPOS>SUBSTRUCTURE
     1 FUV         1 TEMP              0 ****  ****    0 ROOT
