@<TRIPOS>MOLECULE
FUX
   15    15     1     0     0
SMALL
bcc


@<TRIPOS>ATOM
      1 C1          0.0570    0.3100    0.1430 c         1 FUX      0.495400
      2 C2          1.4970    0.1250    0.0220 cc        1 FUX      0.137200
      3 O3          2.2300    0.2030    1.2200 os        1 FUX     -0.362800
      4 C4          3.5670    0.0100    0.8720 cc        1 FUX      0.243000
      5 C5          3.6870   -0.1850   -0.4940 cd        1 FUX     -0.268300
      6 C6          2.3540   -0.1130   -1.0400 cd        1 FUX     -0.162300
      7 C7          4.5420    0.0250    1.9860 c3        1 FUX      0.096100
      8 O8          4.2280    0.9710    2.9850 oh        1 FUX     -0.582800
      9 OXT        -0.7020    0.2490   -0.8250 o         1 FUX     -0.515100
     10 H1         -0.3060    0.5100    1.1750 h4        1 FUX      0.020200
     11 H5          4.5980   -0.3550   -1.0600 ha        1 FUX      0.170000
     12 H6          2.0800   -0.2220   -2.0880 ha        1 FUX      0.178000
     13 H71         4.6020   -1.0070    2.4330 h1        1 FUX      0.069200
     14 H72         5.5540    0.3340    1.6040 h1        1 FUX      0.069200
     15 HO8         3.3320    0.7850    3.2950 ho        1 FUX      0.413000
@<TRIPOS>BOND
     1    1    2 1
     2    1    9 2
     3    1   10 1
     4    2    3 1
     5    2    6 2
     6    3    4 1
     7    4    5 2
     8    4    7 1
     9    5    6 1
    10    5   11 1
    11    6   12 1
    12    7    8 1
    13    7   13 1
    14    7   14 1
    15    8   15 1
@<TRIPOS>SUBSTRUCTURE
     1 FUX         1 TEMP              0 ****  ****    0 ROOT
