@<TRIPOS>MOLECULE
molecule
   25    25     1     0     0
SMALL
bcc


@<TRIPOS>ATOM
      1 C1           0.0000     0.0000     0.0000 c3         1 FUY       0.423300
      2 N1          -0.4890    -0.0580    -1.3790 n2         1 FUY      -0.228200
      3 C2           1.5310     0.0000     0.0000 c3         1 FUY       0.107100
      4 N2          -1.1360     0.7690    -1.7820 n1         1 FUY       0.452000
      5 O2           2.0070     1.1680    -0.6710 oh         1 FUY      -0.604800
      6 C3           2.0340     0.0000     1.4470 c3         1 FUY       0.145100
      7 N3          -1.7840     1.5870    -2.2020 n2         1 FUY      -0.415400
      8 O3           3.4610    -0.0740     1.4560 oh         1 FUY      -0.563800
      9 C4           1.4530    -1.2150     2.1780 c3         1 FUY       0.092100
     10 O4           2.0250    -2.4190     1.6090 oh         1 FUY      -0.574800
     11 C5          -0.0750    -1.1680     2.0940 c3         1 FUY       0.147100
     12 O5          -0.4750    -1.1380     0.7230 os         1 FUY      -0.393600
     13 C6          -0.6610    -2.4080     2.7700 c3         1 FUY      -0.084100
     14 H1          -0.3590     0.9040     0.4780 h2         1 FUY       0.068700
     15 H2           1.8910    -0.8870    -0.5070 h1         1 FUY       0.120700
     16 HO2          2.4430     0.9170    -1.4690 ho         1 FUY       0.439000
     17 H3           1.7100     0.9080     1.9410 h1         1 FUY       0.051700
     18 HN3         -2.0340     2.3700    -1.6310 hn         1 FUY       0.627400
     19 HO3          3.8080     0.6140     2.0000 ho         1 FUY       0.427000
     20 H4           1.7070    -1.1610     3.2290 h1         1 FUY       0.072700
     21 HO4          2.6120    -2.8120     2.2330 ho         1 FUY       0.429000
     22 H5          -0.4350    -0.2760     2.5930 h1         1 FUY       0.051700
     23 H6          -0.1880    -2.5520     3.7340 hc         1 FUY       0.070033
     24 H6A         -0.4820    -3.2770     2.1480 hc         1 FUY       0.070033
     25 H6B         -1.7270    -2.2750     2.9070 hc         1 FUY       0.070033
@<TRIPOS>BOND
     1     1     2 1
     2     1     3 1
     3     1    12 1
     4     2     4 2
     5     3     5 1
     6     3     6 1
     7     4     7 2
     8     6     8 1
     9     6     9 1
    10     9    10 1
    11     9    11 1
    12    11    12 1
    13    11    13 1
    14     1    14 1
    15     3    15 1
    16     5    16 1
    17     6    17 1
    18     7    18 1
    19     8    19 1
    20     9    20 1
    21    10    21 1
    22    11    22 1
    23    13    23 1
    24    13    24 1
    25    13    25 1
@<TRIPOS>SUBSTRUCTURE
     1 FUY         1 TEMP              0 ****  ****    0 ROOT
