@<TRIPOS>MOLECULE
FUY
   25    25     1     0     0
SMALL
bcc


@<TRIPOS>ATOM
      1 C1           0.0000     0.0000     0.0000 c3         1 FUY       0.417300
      2 N1          -0.4890    -0.0580    -1.3790 n2         1 FUY      -0.324200
      3 C2           1.5310     0.0000     0.0000 c3         1 FUY       0.127100
      4 N2          -1.1360     0.7690    -1.7820 n1         1 FUY       0.835000
      5 O2           2.0070     1.1680    -0.6710 oh         1 FUY      -0.601800
      6 C3           2.0340     0.0000     1.4470 c3         1 FUY       0.173100
      7 N3          -1.7810     1.6050    -2.1670 n2         1 FUY      -0.422400
      8 O3           3.4610    -0.0740     1.4560 oh         1 FUY      -0.554800
      9 C4           1.4530    -1.2150     2.1780 c3         1 FUY       0.130100
     10 O4           2.0250    -2.4190     1.6090 oh         1 FUY      -0.559800
     11 C5          -0.0750    -1.1680     2.0940 c3         1 FUY       0.190100
     12 O5          -0.4750    -1.1380     0.7230 os         1 FUY      -0.387600
     13 C6          -0.6610    -2.4080     2.7700 c3         1 FUY       0.007900
     14 H1          -0.3590     0.9040     0.4780 h2         1 FUY       0.011700
     15 H2           1.8910    -0.8870    -0.5070 h1         1 FUY       0.074700
     16 HO2          2.5150     0.9130    -1.4240 ho         1 FUY       0.425000
     17 H3           1.7100     0.9080     1.9410 h1         1 FUY       0.012700
     18 HN3         -2.0140     2.3740    -1.5700 hn         1 FUY       0.491400
     19 HO3          3.8110     0.6600     1.9350 ho         1 FUY       0.408000
     20 H4           1.7070    -1.1610     3.2290 h1         1 FUY       0.030700
     21 HO4          2.6620    -2.7760     2.2050 ho         1 FUY       0.414000
     22 H5          -0.4350    -0.2760     2.5930 h1         1 FUY       0.014700
     23 H6          -0.1860    -2.5530     3.7330 hc         1 FUY       0.028033
     24 H6A         -1.7270    -2.2740     2.9090 hc         1 FUY       0.028033
     25 H6B         -0.4840    -3.2770     2.1470 hc         1 FUY       0.028033
@<TRIPOS>BOND
     1     1     2 1   
     2     1     3 1   
     3     1    12 1   
     4     1    14 1   
     5     2     4 2   
     6     3     5 1   
     7     3     6 1   
     8     3    15 1   
     9     4     7 2   
    10     5    16 1   
    11     6     8 1   
    12     6     9 1   
    13     6    17 1   
    14     7    18 1   
    15     8    19 1   
    16     9    10 1   
    17     9    11 1   
    18     9    20 1   
    19    10    21 1   
    20    11    12 1   
    21    11    13 1   
    22    11    22 1   
    23    13    23 1   
    24    13    24 1   
    25    13    25 1   
@<TRIPOS>SUBSTRUCTURE
     1 FUY         1 TEMP              0 ****  ****    0 ROOT
