@<TRIPOS>MOLECULE
molecule
   42    42     1     0     0
SMALL
bcc


@<TRIPOS>ATOM
      1 N11          0.0000     0.0000     0.0000 n7         1 FV0      -0.816200
      2 C12          1.4690     0.0000     0.0000 c3         1 FV0       0.157800
      3 C13          1.9780     0.0000     1.4430 c3         1 FV0      -0.075700
      4 C14          1.5730    -1.3080     2.1260 c3         1 FV0      -0.085600
      5 C15          3.5040     0.1260     1.4450 c3         1 FV0      -0.085600
      6 C16         -0.5260     0.0010    -1.3720 c3         1 FV0       0.131800
      7 C17         -2.0560     0.0010    -1.3310 c3         1 FV0       0.127100
      8 O18         -2.5160     1.2220    -0.7490 oh         1 FV0      -0.574800
      9 C19         -2.6030    -0.1240    -2.7550 c3         1 FV0       0.090500
     10 N20         -2.1300    -1.3790    -3.3530 nz         1 FV0      -0.810600
     11 C32         -4.1330    -0.1240    -2.7150 c3         1 FV0      -0.049100
     12 C33         -4.9200    -1.3210    -4.7670 ca         1 FV0      -0.136000
     13 C34         -5.4150    -1.3200    -6.0580 ca         1 FV0      -0.106000
     14 C35         -5.6610    -0.1230    -6.7040 ca         1 FV0      -0.099000
     15 C36         -5.4140     1.0740    -6.0570 ca         1 FV0      -0.106000
     16 C37         -4.9190     1.0730    -4.7660 ca         1 FV0      -0.136000
     17 C38         -4.6720    -0.1240    -4.1210 ca         1 FV0      -0.151300
     18 H12          1.8310     0.8850    -0.5100 h1         1 FV0       0.038200
     19 H12A         1.8310    -0.8850    -0.5100 h1         1 FV0       0.038200
     20 H13          1.5460     0.8370     1.9790 hc         1 FV0       0.054700
     21 H14          1.8900    -2.1460     1.5180 hc         1 FV0       0.040700
     22 H14A         2.0450    -1.3680     3.0990 hc         1 FV0       0.040700
     23 H14B         0.4970    -1.3350     2.2450 hc         1 FV0       0.040700
     24 H15          3.8640     0.1350     2.4670 hc         1 FV0       0.040700
     25 H15A         3.7910     1.0470     0.9530 hc         1 FV0       0.040700
     26 H15B         3.9360    -0.7160     0.9180 hc         1 FV0       0.040700
     27 H16         -0.1780    -0.8840    -1.8930 h1         1 FV0       0.034700
     28 H16A        -0.1780     0.8850    -1.8920 h1         1 FV0       0.034700
     29 H17         -2.4010    -0.8360    -0.7360 h1         1 FV0       0.064700
     30 HO18        -2.9480     1.0380     0.0680 ho         1 FV0       0.436000
     31 H19         -2.2570     0.7120    -3.3500 hx         1 FV0       0.129700
     32 HN20        -2.5710    -1.5130    -4.2420 hn         1 FV0       0.457133
     33 H32         -4.4800     0.7610    -2.1950 hc         1 FV0       0.091200
     34 H32A        -4.4810    -1.0080    -2.1950 hc         1 FV0       0.091200
     35 H35         -6.0490    -0.1230    -7.7150 ha         1 FV0       0.156000
     36 H36         -5.6070     2.0130    -6.5620 ha         1 FV0       0.153000
     37 H37         -4.7250     2.0110    -4.2600 ha         1 FV0       0.130000
     38 H2          -0.3340     0.8090     0.4850 hn         1 FV0       0.374800
     39 H1          -1.1370    -1.3370    -3.4760 hn         1 FV0       0.457133
     40 H33         -4.7270    -2.2600    -4.2620 ha         1 FV0       0.130000
     41 H203        -2.3250    -2.1400    -2.7320 hn         1 FV0       0.457133
     42 H34         -5.6090    -2.2580    -6.5640 ha         1 FV0       0.153000
@<TRIPOS>BOND
     1     1     2 1
     2     1     6 1
     3     2     3 1
     4     3     4 1
     5     3     5 1
     6     6     7 1
     7     7     8 1
     8     7     9 1
     9     9    10 1
    10     9    11 1
    11    11    17 1
    12    12    13 ar
    13    12    17 ar
    14    13    14 ar
    15    14    15 ar
    16    15    16 ar
    17    16    17 ar
    18     2    18 1
    19     2    19 1
    20     3    20 1
    21     4    21 1
    22     4    22 1
    23     4    23 1
    24     5    24 1
    25     5    25 1
    26     5    26 1
    27     6    27 1
    28     6    28 1
    29     7    29 1
    30     8    30 1
    31     9    31 1
    32    10    32 1
    33    11    33 1
    34    11    34 1
    35    12    40 1
    36    13    42 1
    37    14    35 1
    38    15    36 1
    39    16    37 1
    40     1    38 1
    41    10    39 1
    42    41    10 1
@<TRIPOS>SUBSTRUCTURE
     1 FV0         1 TEMP              0 ****  ****    0 ROOT
