@<TRIPOS>MOLECULE
FV0
   42    42     1     0     0
SMALL
bcc


@<TRIPOS>ATOM
      1 N11          0.0000     0.0000     0.0000 n7         1 FV0      -0.581200
      2 C12          1.4690     0.0000     0.0000 c3         1 FV0       0.143800
      3 C13          1.9780     0.0000     1.4430 c3         1 FV0      -0.052700
      4 C14          1.5730    -1.3080     2.1260 c3         1 FV0       0.008900
      5 C15          3.5040     0.1260     1.4450 c3         1 FV0       0.008900
      6 C16         -0.5260     0.0010    -1.3720 c3         1 FV0       0.112800
      7 C17         -2.0560     0.0010    -1.3310 c3         1 FV0       0.181100
      8 O18         -2.5160     1.2220    -0.7490 oh         1 FV0      -0.553800
      9 C19         -2.6030    -0.1240    -2.7550 c3         1 FV0      -0.094500
     10 N20         -2.1300    -1.3790    -3.3530 nz         1 FV0       0.046400
     11 C32         -4.1330    -0.1240    -2.7150 c3         1 FV0       0.033900
     12 C33         -4.9200    -1.3210    -4.7670 ca         1 FV0      -0.104000
     13 C34         -5.4150    -1.3200    -6.0580 ca         1 FV0      -0.074000
     14 C35         -5.6610    -0.1230    -6.7040 ca         1 FV0      -0.064000
     15 C36         -5.4140     1.0740    -6.0570 ca         1 FV0      -0.074000
     16 C37         -4.9190     1.0730    -4.7660 ca         1 FV0      -0.104000
     17 C38         -4.6720    -0.1240    -4.1210 ca         1 FV0      -0.173300
     18 H12          1.8310     0.8850    -0.5100 h1         1 FV0       0.012700
     19 H12A         1.8310    -0.8850    -0.5100 h1         1 FV0       0.012700
     20 H13          1.5460     0.8370     1.9790 hc         1 FV0       0.028700
     21 H14          1.8900    -2.1460     1.5180 hc         1 FV0       0.007867
     22 H14A         2.0450    -1.3680     3.0990 hc         1 FV0       0.007867
     23 H14B         0.4970    -1.3350     2.2450 hc         1 FV0       0.007867
     24 H15          3.8640     0.1350     2.4670 hc         1 FV0       0.007867
     25 H15A         3.7910     1.0470     0.9530 hc         1 FV0       0.007867
     26 H15B         3.9360    -0.7160     0.9180 hc         1 FV0       0.007867
     27 H16         -0.1780    -0.8840    -1.8930 h1         1 FV0       0.009200
     28 H16A        -0.1780     0.8850    -1.8920 h1         1 FV0       0.009200
     29 H17         -2.4010    -0.8360    -0.7360 h1         1 FV0       0.028700
     30 HO18        -2.9480     1.0380     0.0680 ho         1 FV0       0.422000
     31 H19         -2.2570     0.7120    -3.3500 hx         1 FV0       0.104700
     32 HN20        -2.5710    -1.5130    -4.2420 hn         1 FV0       0.232800
     33 H32         -4.4800     0.7610    -2.1950 hc         1 FV0       0.055700
     34 H32A        -4.4810    -1.0080    -2.1950 hc         1 FV0       0.055700
     35 H35         -6.0490    -0.1230    -7.7150 ha         1 FV0       0.123000
     36 H36         -5.6070     2.0130    -6.5620 ha         1 FV0       0.121000
     37 H37         -4.7250     2.0110    -4.2600 ha         1 FV0       0.105500
     38 H2          -0.3340     0.8090     0.4850 hn         1 FV0       0.274800
     39 H1          -1.1370    -1.3370    -3.4760 hn         1 FV0       0.232800
     40 H33         -4.7270    -2.2600    -4.2620 ha         1 FV0       0.105500
     41 H203        -2.3250    -2.1400    -2.7320 hn         1 FV0       0.232800
     42 H34         -5.6090    -2.2580    -6.5640 ha         1 FV0       0.121000
@<TRIPOS>BOND
     1     1     2 1   
     2     1     6 1   
     3     1    38 1   
     4     2     3 1   
     5     2    18 1   
     6     2    19 1   
     7     3     4 1   
     8     3     5 1   
     9     3    20 1   
    10     4    21 1   
    11     4    22 1   
    12     4    23 1   
    13     5    24 1   
    14     5    25 1   
    15     5    26 1   
    16     6     7 1   
    17     6    27 1   
    18     6    28 1   
    19     7     8 1   
    20     7     9 1   
    21     7    29 1   
    22     8    30 1   
    23     9    10 1   
    24     9    11 1   
    25     9    31 1   
    26    10    32 1   
    27    10    39 1   
    28    10    41 1   
    29    11    17 1   
    30    11    33 1   
    31    11    34 1   
    32    12    13 ar  
    33    12    17 ar  
    34    12    40 1   
    35    13    14 ar  
    36    13    42 1   
    37    14    15 ar  
    38    14    35 1   
    39    15    16 ar  
    40    15    36 1   
    41    16    17 ar  
    42    16    37 1   
@<TRIPOS>SUBSTRUCTURE
     1 FV0         1 TEMP              0 ****  ****    0 ROOT
