@<TRIPOS>MOLECULE
molecule
   48    51     1     0     0
SMALL
bcc


@<TRIPOS>ATOM
      1 N1           0.0000     0.0000     0.0000 nc         1 FV4      -0.640100
      2 N3           2.8730     0.8290    -3.7410 n7         1 FV4      -0.819200
      3 C4           3.1780    -0.0010     1.7000 c3         1 FV4       0.104600
      4 C5           1.3100     0.0000     0.0000 cd         1 FV4       0.596700
      5 C6          -0.4560    -0.0000     1.2800 ca         1 FV4       0.108400
      6 C7          -1.7350    -0.0010     1.8420 ca         1 FV4      -0.068000
      7 C8          -1.8790    -0.0020     3.2120 ca         1 FV4      -0.137000
      8 C10          0.5060    -0.0000     3.4980 ca         1 FV4      -0.119000
      9 C13          2.2700    -0.4930    -3.5210 c3         1 FV4       0.154300
     10 C15          2.7050     1.3220    -1.3500 c3         1 FV4       0.174300
     11 C17          4.6660    -3.3560     0.8160 ca         1 FV4      -0.117800
     12 N            1.7740     0.0000     1.2840 na         1 FV4      -0.147300
     13 C1           4.0180    -3.3950     3.1240 ca         1 FV4      -0.117800
     14 C11          0.6690    -0.0010     2.1200 ca         1 FV4      -0.082200
     15 C12          1.3390    -0.4300    -2.3080 c3         1 FV4       0.174300
     16 C14          3.6370     1.2600    -2.5620 c3         1 FV4       0.154300
     17 C16          4.2160    -2.0540     0.7130 ca         1 FV4      -0.085000
     18 C18          5.2700    -4.0420    -0.3820 c3         1 FV4      -0.044800
     19 C19          4.5680    -4.0290     2.0230 ca         1 FV4       0.139900
     20 C2           3.5700    -2.0920     3.0190 ca         1 FV4      -0.085000
     21 C3           3.6680    -1.4220     1.8140 ca         1 FV4      -0.131300
     22 C9          -0.7650    -0.0020     4.0380 ca         1 FV4       0.036400
     23 N2           2.1020     0.0010    -1.1290 nh         1 FV4      -0.664600
     24 Cl          -0.9670    -0.0020     5.7630 cl         1 FV4      -0.111400
     25 H1           3.4800     0.7910    -4.5360 hn         1 FV4       0.357800
     26 H3           3.7730     0.5280     0.9660 h1         1 FV4       0.067700
     27 H4           3.2700     0.4900     2.6610 h1         1 FV4       0.067700
     28 H5          -2.6100    -0.0010     1.2040 ha         1 FV4       0.149000
     29 H6          -2.8710    -0.0030     3.6480 ha         1 FV4       0.146000
     30 H7           1.3730    -0.0010     4.1470 ha         1 FV4       0.136000
     31 H8           1.7020    -0.7800    -4.3980 h1         1 FV4       0.041200
     32 H9           3.0530    -1.2200    -3.3370 h1         1 FV4       0.041200
     33 H10          3.2730     1.6100    -0.4730 h1         1 FV4       0.059700
     34 H11          1.9230     2.0490    -1.5340 h1         1 FV4       0.059700
     35 H12          3.6570    -3.4240     5.2220 hc         1 FV4       0.049033
     36 H13          4.8560    -4.5990     4.6670 hc         1 FV4       0.049033
     37 H14          3.1360    -4.8820     4.3670 hc         1 FV4       0.049033
     38 H15          0.9170    -1.4110    -2.1260 h1         1 FV4       0.059700
     39 H16          0.5440     0.2800    -2.5020 h1         1 FV4       0.059700
     40 H17          4.0580     2.2410    -2.7440 h1         1 FV4       0.041200
     41 H18          4.4320     0.5500    -2.3680 h1         1 FV4       0.041200
     42 H19          4.3420    -1.5110    -0.2160 ha         1 FV4       0.142000
     43 H20          4.5010    -4.5980    -0.9060 hc         1 FV4       0.049033
     44 H21          6.0480    -4.7210    -0.0550 hc         1 FV4       0.049033
     45 H22          5.6950    -3.2990    -1.0470 hc         1 FV4       0.049033
     46 H23          3.1860    -1.5800     3.8930 ha         1 FV4       0.142000
     47 F            5.0070    -5.3020     2.1240 f          1 FV4      -0.137900
     48 C            3.9090    -4.1260     4.4370 c3         1 FV4      -0.044800
@<TRIPOS>BOND
     1    18    11 1
     2     2     9 1
     3     2    16 1
     4     9    15 1
     5    47    19 1
     6    11    19 ar
     7    11    17 ar
     8    19    13 ar
     9    16    10 1
    10    17    21 ar
    11    15    23 1
    12    13    48 1
    13    13    20 ar
    14    21    20 ar
    15    21     3 1
    16    23    10 1
    17    23     4 1
    18     3    12 1
    19     4    12 1
    20     4     1 2
    21    12    14 1
    22     1     5 1
    23    14     5 ar
    24    14     8 ar
    25     5     6 ar
    26     8    22 ar
    27     6     7 ar
    28    22     7 ar
    29    22    24 1
    30     2    25 1
    31     3    26 1
    32     3    27 1
    33     6    28 1
    34     7    29 1
    35     8    30 1
    36     9    31 1
    37     9    32 1
    38    10    33 1
    39    10    34 1
    40    48    35 1
    41    48    36 1
    42    48    37 1
    43    15    38 1
    44    15    39 1
    45    16    40 1
    46    16    41 1
    47    17    42 1
    48    18    43 1
    49    18    44 1
    50    18    45 1
    51    20    46 1
@<TRIPOS>SUBSTRUCTURE
     1 FV4         1 TEMP              0 ****  ****    0 ROOT
