@<TRIPOS>MOLECULE
FV4
   48    51     1     0     0
SMALL
bcc


@<TRIPOS>ATOM
      1 N1           0.0000     0.0000     0.0000 nc         1 FV4      -0.560100
      2 N3           2.8730     0.8290    -3.7410 n7         1 FV4      -0.580200
      3 C4           3.1780    -0.0010     1.7000 c3         1 FV4       0.024600
      4 C5           1.3100     0.0000     0.0000 cd         1 FV4       0.323700
      5 C6          -0.4560    -0.0000     1.2800 ca         1 FV4       0.081400
      6 C7          -1.7350    -0.0010     1.8420 ca         1 FV4      -0.032000
      7 C8          -1.8790    -0.0020     3.2120 ca         1 FV4      -0.116000
      8 C10          0.5060    -0.0000     3.4980 ca         1 FV4      -0.087000
      9 C13          2.2700    -0.4930    -3.5210 c3         1 FV4       0.144800
     10 C15          2.7050     1.3220    -1.3500 c3         1 FV4       0.143800
     11 C17          4.6660    -3.3560     0.8160 ca         1 FV4      -0.111800
     12 N            1.7740     0.0000     1.2840 na         1 FV4       0.315700
     13 C1           4.0180    -3.3950     3.1240 ca         1 FV4      -0.111800
     14 C11          0.6690    -0.0010     2.1200 ca         1 FV4      -0.249200
     15 C12          1.3390    -0.4300    -2.3080 c3         1 FV4       0.143800
     16 C14          3.6370     1.2600    -2.5620 c3         1 FV4       0.144800
     17 C16          4.2160    -2.0540     0.7130 ca         1 FV4      -0.064500
     18 C18          5.2700    -4.0420    -0.3820 c3         1 FV4       0.065700
     19 C19          4.5680    -4.0290     2.0230 ca         1 FV4       0.113900
     20 C2           3.5700    -2.0920     3.0190 ca         1 FV4      -0.064500
     21 C3           3.6680    -1.4220     1.8140 ca         1 FV4      -0.137300
     22 C9          -0.7650    -0.0020     4.0380 ca         1 FV4      -0.025600
     23 N2           2.1020     0.0010    -1.1290 nh         1 FV4      -0.431600
     24 Cl          -0.9670    -0.0020     5.7630 cl         1 FV4      -0.033400
     25 H1           3.4800     0.7910    -4.5360 hn         1 FV4       0.254800
     26 H3           3.7730     0.5280     0.9660 h1         1 FV4       0.041700
     27 H4           3.2700     0.4900     2.6610 h1         1 FV4       0.041700
     28 H5          -2.6100    -0.0010     1.2040 ha         1 FV4       0.114000
     29 H6          -2.8710    -0.0030     3.6480 ha         1 FV4       0.116000
     30 H7           1.3730    -0.0010     4.1470 ha         1 FV4       0.111000
     31 H8           1.7020    -0.7800    -4.3980 h1         1 FV4       0.011450
     32 H9           3.0530    -1.2200    -3.3370 h1         1 FV4       0.011450
     33 H10          3.2730     1.6100    -0.4730 h1         1 FV4       0.030200
     34 H11          1.9230     2.0490    -1.5340 h1         1 FV4       0.030200
     35 H12          3.6570    -3.4240     5.2220 hc         1 FV4       0.013700
     36 H13          4.8560    -4.5990     4.6670 hc         1 FV4       0.013700
     37 H14          3.1360    -4.8820     4.3670 hc         1 FV4       0.013700
     38 H15          0.9170    -1.4110    -2.1260 h1         1 FV4       0.030200
     39 H16          0.5440     0.2800    -2.5020 h1         1 FV4       0.030200
     40 H17          4.0580     2.2410    -2.7440 h1         1 FV4       0.011450
     41 H18          4.4320     0.5500    -2.3680 h1         1 FV4       0.011450
     42 H19          4.3420    -1.5110    -0.2160 ha         1 FV4       0.118000
     43 H20          4.5010    -4.5980    -0.9060 hc         1 FV4       0.013700
     44 H21          6.0480    -4.7210    -0.0550 hc         1 FV4       0.013700
     45 H22          5.6950    -3.2990    -1.0470 hc         1 FV4       0.013700
     46 H23          3.1860    -1.5800     3.8930 ha         1 FV4       0.118000
     47 F            5.0070    -5.3020     2.1240 f          1 FV4      -0.124900
     48 C            3.9090    -4.1260     4.4370 c3         1 FV4       0.065700
@<TRIPOS>BOND
     1     1     4 2   
     2     1     5 1   
     3     2     9 1   
     4     2    16 1   
     5     2    25 1   
     6     3    12 1   
     7     3    21 1   
     8     3    26 1   
     9     3    27 1   
    10     4    12 1   
    11     4    23 1   
    12     5     6 ar  
    13     5    14 ar  
    14     6     7 ar  
    15     6    28 1   
    16     7    22 ar  
    17     7    29 1   
    18     8    14 ar  
    19     8    22 ar  
    20     8    30 1   
    21     9    15 1   
    22     9    31 1   
    23     9    32 1   
    24    10    16 1   
    25    10    23 1   
    26    10    33 1   
    27    10    34 1   
    28    11    17 ar  
    29    11    18 1   
    30    11    19 ar  
    31    12    14 1   
    32    13    19 ar  
    33    13    20 ar  
    34    13    48 1   
    35    15    23 1   
    36    15    38 1   
    37    15    39 1   
    38    16    40 1   
    39    16    41 1   
    40    17    21 ar  
    41    17    42 1   
    42    18    43 1   
    43    18    44 1   
    44    18    45 1   
    45    19    47 1   
    46    20    21 ar  
    47    20    46 1   
    48    22    24 1   
    49    35    48 1   
    50    36    48 1   
    51    37    48 1   
@<TRIPOS>SUBSTRUCTURE
     1 FV4         1 TEMP              0 ****  ****    0 ROOT
