@<TRIPOS>MOLECULE
FV7
   58    62     1     0     0
SMALL
bcc


@<TRIPOS>ATOM
      1 N1           0.0000     0.0000     0.0000 nc         1 FV7      -0.553100
      2 N3           2.8760     0.8290    -3.7400 n7         1 FV7      -0.580200
      3 C4           3.1780    -0.0010     1.7020 c3         1 FV7       0.024600
      4 C5           1.3110     0.0000     0.0000 cd         1 FV7       0.323700
      5 C6          -0.4560     0.0000     1.2780 ca         1 FV7       0.096400
      6 C7          -1.7440    -0.0010     1.8450 cp         1 FV7       0.027000
      7 C8          -1.8830    -0.0020     3.2270 ca         1 FV7      -0.101000
      8 C10          0.5040    -0.0010     3.4960 ca         1 FV7      -0.085000
      9 C13         -3.8080     1.0920     0.9740 ca         1 FV7      -0.080000
     10 C15         -5.1790     0.0040    -0.6600 ca         1 FV7      -0.091000
     11 C17         -3.2090    -1.0930     0.1470 ca         1 FV7      -0.008600
     12 C20          2.2730    -0.4920    -3.5200 c3         1 FV7       0.144300
     13 C21          1.3410    -0.4300    -2.3080 c3         1 FV7       0.143300
     14 C22          4.2230    -2.0480     0.7120 ca         1 FV7      -0.065000
     15 C25          4.5740    -4.0270     2.0160 ca         1 FV7       0.113900
     16 C1           4.0140    -3.4000     3.1160 ca         1 FV7      -0.111300
     17 C            3.8990    -4.1370     4.4250 c3         1 FV7       0.065700
     18 C23          4.6790    -3.3490     0.8130 ca         1 FV7      -0.111300
     19 C3           3.6690    -1.4220     1.8120 ca         1 FV7      -0.137300
     20 C2           3.5630    -2.0980     3.0140 ca         1 FV7      -0.065000
     21 N            1.7730     0.0000     1.2850 na         1 FV7       0.316700
     22 C11          0.6680    -0.0010     2.1190 ca         1 FV7      -0.247200
     23 C9          -0.7650    -0.0010     4.0440 ca         1 FV7      -0.027600
     24 Cl          -0.9590    -0.0030     5.7690 cl         1 FV7      -0.029400
     25 C12         -2.9420    -0.0000     0.9730 cp         1 FV7      -0.024000
     26 C16         -4.3210    -1.0810    -0.6700 ca         1 FV7      -0.103000
     27 C14         -4.9220     1.0880     0.1600 ca         1 FV7      -0.105000
     28 N2           2.1040     0.0000    -1.1290 nh         1 FV7      -0.431600
     29 C19          3.6390     1.2600    -2.5600 c3         1 FV7       0.144300
     30 C18          2.7070     1.3230    -1.3480 c3         1 FV7       0.143300
     31 H1           3.4830     0.7910    -4.5350 hn         1 FV7       0.254800
     32 H3           3.2690     0.4880     2.6640 h1         1 FV7       0.041700
     33 H4           3.7720     0.5300     0.9690 h1         1 FV7       0.041700
     34 H5          -2.8730    -0.0010     3.6690 ha         1 FV7       0.123000
     35 H6           1.3720    -0.0010     4.1450 ha         1 FV7       0.111000
     36 H7          -3.6080     1.9420     1.6150 ha         1 FV7       0.109000
     37 H8          -6.0530     0.0070    -1.3010 ha         1 FV7       0.103000
     38 H9           3.0550    -1.2190    -3.3360 h1         1 FV7       0.011450
     39 H10          1.7050    -0.7790    -4.3970 h1         1 FV7       0.011450
     40 H11          0.9200    -1.4110    -2.1270 h1         1 FV7       0.030950
     41 H12          0.5460     0.2800    -2.5020 h1         1 FV7       0.030950
     42 H13          4.3460    -1.5020    -0.2160 ha         1 FV7       0.118000
     43 H14          5.7220    -3.2840    -1.0420 hc         1 FV7       0.013867
     44 H15          6.0630    -4.7130    -0.0570 hc         1 FV7       0.013867
     45 H16          4.5230    -4.5790    -0.9180 hc         1 FV7       0.013867
     46 H17          3.6650    -3.4350     5.2160 hc         1 FV7       0.013867
     47 H18          4.8380    -4.6310     4.6450 hc         1 FV7       0.013867
     48 H19          3.1100    -4.8770     4.3550 hc         1 FV7       0.013867
     49 H20          3.1250    -1.6080     3.8750 ha         1 FV7       0.118000
     50 H21         -4.5280    -1.9280    -1.3130 ha         1 FV7       0.113000
     51 H22         -5.5950     1.9370     0.1620 ha         1 FV7       0.104000
     52 H23          4.0590     2.2420    -2.7420 h1         1 FV7       0.011450
     53 H24          4.4340     0.5510    -2.3670 h1         1 FV7       0.011450
     54 H25          1.9250     2.0490    -1.5320 h1         1 FV7       0.030950
     55 H26          3.2750     1.6090    -0.4720 h1         1 FV7       0.030950
     56 Cl1         -2.1340    -2.4560     0.1340 cl         1 FV7      -0.016400
     57 C24          5.2900    -4.0290    -0.3850 c3         1 FV7       0.065700
     58 F            5.0190    -5.2990     2.1160 f          1 FV7      -0.124900
@<TRIPOS>BOND
     1     1     4 2   
     2     1     5 1   
     3     2    12 1   
     4     2    29 1   
     5     2    31 1   
     6     3    19 1   
     7     3    21 1   
     8     3    32 1   
     9     3    33 1   
    10     4    21 1   
    11     4    28 1   
    12     5     6 ar  
    13     5    22 ar  
    14     6     7 ar  
    15     6    25 1   
    16     7    23 ar  
    17     7    34 1   
    18     8    22 ar  
    19     8    23 ar  
    20     8    35 1   
    21     9    25 ar  
    22     9    27 ar  
    23     9    36 1   
    24    10    26 ar  
    25    10    27 ar  
    26    10    37 1   
    27    11    25 ar  
    28    11    26 ar  
    29    11    56 1   
    30    12    13 1   
    31    12    38 1   
    32    12    39 1   
    33    13    28 1   
    34    13    40 1   
    35    13    41 1   
    36    14    18 ar  
    37    14    19 ar  
    38    14    42 1   
    39    15    16 ar  
    40    15    18 ar  
    41    15    58 1   
    42    16    17 1   
    43    16    20 ar  
    44    17    46 1   
    45    17    47 1   
    46    17    48 1   
    47    18    57 1   
    48    19    20 ar  
    49    20    49 1   
    50    21    22 1   
    51    23    24 1   
    52    26    50 1   
    53    27    51 1   
    54    28    30 1   
    55    29    30 1   
    56    29    52 1   
    57    29    53 1   
    58    30    54 1   
    59    30    55 1   
    60    43    57 1   
    61    44    57 1   
    62    45    57 1   
@<TRIPOS>SUBSTRUCTURE
     1 FV7         1 TEMP              0 ****  ****    0 ROOT
