@<TRIPOS>MOLECULE
molecule
   58    62     1     0     0
SMALL
bcc


@<TRIPOS>ATOM
      1 N1           0.0000     0.0000     0.0000 nc         1 FV7      -0.629100
      2 N3           2.8760     0.8290    -3.7400 n7         1 FV7      -0.819200
      3 C4           3.1780    -0.0010     1.7020 c3         1 FV7       0.104600
      4 C5           1.3110     0.0000     0.0000 cd         1 FV7       0.595700
      5 C6          -0.4560     0.0000     1.2780 ca         1 FV7       0.128400
      6 C7          -1.7440    -0.0010     1.8450 cp         1 FV7       0.015000
      7 C8          -1.8830    -0.0020     3.2270 ca         1 FV7      -0.119000
      8 C10          0.5040    -0.0010     3.4960 ca         1 FV7      -0.115000
      9 C13         -3.8080     1.0920     0.9740 ca         1 FV7      -0.105000
     10 C15         -5.1790     0.0040    -0.6600 ca         1 FV7      -0.118000
     11 C17         -3.2090    -1.0930     0.1470 ca         1 FV7       0.057400
     12 C20          2.2730    -0.4920    -3.5200 c3         1 FV7       0.154300
     13 C21          1.3410    -0.4300    -2.3080 c3         1 FV7       0.173800
     14 C22          4.2230    -2.0480     0.7120 ca         1 FV7      -0.085500
     15 C25          4.5740    -4.0270     2.0160 ca         1 FV7       0.139900
     16 C1           4.0140    -3.4000     3.1160 ca         1 FV7      -0.116800
     17 C            3.8990    -4.1370     4.4250 c3         1 FV7      -0.044800
     18 C23          4.6790    -3.3490     0.8130 ca         1 FV7      -0.116800
     19 C3           3.6690    -1.4220     1.8120 ca         1 FV7      -0.130300
     20 C2           3.5630    -2.0980     3.0140 ca         1 FV7      -0.085500
     21 N            1.7730     0.0000     1.2850 na         1 FV7      -0.146300
     22 C11          0.6680    -0.0010     2.1190 ca         1 FV7      -0.082200
     23 C9          -0.7650    -0.0010     4.0440 ca         1 FV7       0.033400
     24 Cl          -0.9590    -0.0030     5.7690 cl         1 FV7      -0.108400
     25 C12         -2.9420    -0.0000     0.9730 cp         1 FV7      -0.024000
     26 C16         -4.3210    -1.0810    -0.6700 ca         1 FV7      -0.126000
     27 C14         -4.9220     1.0880     0.1600 ca         1 FV7      -0.132000
     28 N2           2.1040     0.0000    -1.1290 nh         1 FV7      -0.663600
     29 C19          3.6390     1.2600    -2.5600 c3         1 FV7       0.154300
     30 C18          2.7070     1.3230    -1.3480 c3         1 FV7       0.173800
     31 H1           3.4830     0.7910    -4.5350 hn         1 FV7       0.357800
     32 H3           3.2690     0.4880     2.6640 h1         1 FV7       0.067700
     33 H4           3.7720     0.5300     0.9690 h1         1 FV7       0.067700
     34 H5          -2.8730    -0.0010     3.6690 ha         1 FV7       0.152000
     35 H6           1.3720    -0.0010     4.1450 ha         1 FV7       0.136000
     36 H7          -3.6080     1.9420     1.6150 ha         1 FV7       0.140000
     37 H8          -6.0530     0.0070    -1.3010 ha         1 FV7       0.134000
     38 H9           3.0550    -1.2190    -3.3360 h1         1 FV7       0.041200
     39 H10          1.7050    -0.7790    -4.3970 h1         1 FV7       0.041200
     40 H11          0.9200    -1.4110    -2.1270 h1         1 FV7       0.060950
     41 H12          0.5460     0.2800    -2.5020 h1         1 FV7       0.060950
     42 H13          4.3460    -1.5020    -0.2160 ha         1 FV7       0.142000
     43 H14          5.7220    -3.2840    -1.0420 hc         1 FV7       0.049033
     44 H15          6.0630    -4.7130    -0.0570 hc         1 FV7       0.049033
     45 H16          4.5230    -4.5790    -0.9180 hc         1 FV7       0.049033
     46 H17          3.6650    -3.4350     5.2160 hc         1 FV7       0.049033
     47 H18          4.8380    -4.6310     4.6450 hc         1 FV7       0.049033
     48 H19          3.1100    -4.8770     4.3550 hc         1 FV7       0.049033
     49 H20          3.1250    -1.6080     3.8750 ha         1 FV7       0.142000
     50 H21         -4.5280    -1.9280    -1.3130 ha         1 FV7       0.143000
     51 H22         -5.5950     1.9370     0.1620 ha         1 FV7       0.133000
     52 H23          4.0590     2.2420    -2.7420 h1         1 FV7       0.041200
     53 H24          4.4340     0.5510    -2.3670 h1         1 FV7       0.041200
     54 H25          1.9250     2.0490    -1.5320 h1         1 FV7       0.060950
     55 H26          3.2750     1.6090    -0.4720 h1         1 FV7       0.060950
     56 Cl1         -2.1340    -2.4560     0.1340 cl         1 FV7      -0.096400
     57 C24          5.2900    -4.0290    -0.3850 c3         1 FV7      -0.044800
     58 F            5.0190    -5.2990     2.1160 f          1 FV7      -0.137900
@<TRIPOS>BOND
     1    17    16 1
     2     2    12 1
     3     2    29 1
     4    58    15 1
     5    12    13 1
     6    16    15 ar
     7    16    20 ar
     8    29    30 1
     9    15    18 ar
    10    20    19 ar
    11    13    28 1
    12    18    57 1
    13    18    14 ar
    14    30    28 1
    15    28     4 1
    16    19    14 ar
    17    19     3 1
    18     3    21 1
    19     4    21 1
    20     4     1 2
    21    21    22 1
    22     1     5 1
    23    56    11 1
    24    22     5 ar
    25    22     8 ar
    26     5     6 ar
    27    11    26 ar
    28    11    25 ar
    29    26    10 ar
    30     8    23 ar
    31     6    25 1
    32     6     7 ar
    33    25     9 ar
    34    10    27 ar
    35    23     7 ar
    36    23    24 1
    37     9    27 ar
    38     2    31 1
    39     3    32 1
    40     3    33 1
    41     7    34 1
    42     8    35 1
    43     9    36 1
    44    10    37 1
    45    12    38 1
    46    12    39 1
    47    13    40 1
    48    13    41 1
    49    14    42 1
    50    57    43 1
    51    57    44 1
    52    57    45 1
    53    17    46 1
    54    17    47 1
    55    17    48 1
    56    20    49 1
    57    26    50 1
    58    27    51 1
    59    29    52 1
    60    29    53 1
    61    30    54 1
    62    30    55 1
@<TRIPOS>SUBSTRUCTURE
     1 FV7         1 TEMP              0 ****  ****    0 ROOT
