@<TRIPOS>MOLECULE
FV8
   43    45     1     0     0
SMALL
bcc


@<TRIPOS>ATOM
      1 CAJ          0.0000     0.0000     0.0000 cc         1 FV8      -0.427600
      2 NAN          1.3680     0.0000     0.0000 na         1 FV8       0.248100
      3 CAI          1.7670     0.0000     1.2910 cc         1 FV8       0.207400
      4 NAO          0.7110    -0.0010     2.0550 nd         1 FV8      -0.622000
      5 CAT         -0.3900    -0.0010     1.2880 cd         1 FV8       0.291600
      6 CAK         -1.8130     0.0040     1.7830 c3         1 FV8      -0.052700
      7 CAL         -2.0280    -1.1790     2.7300 c3         1 FV8       0.041000
      8 NAY         -3.4130    -1.1740     3.2110 n          1 FV8      -0.026300
      9 OAE         -3.7010    -0.7560     4.5320 oh         1 FV8      -0.467100
     10 C           -4.4100    -1.5690     2.3960 c          1 FV8       0.601100
     11 O           -4.1720    -1.8570     1.2420 o          1 FV8      -0.612100
     12 CA          -5.8220    -1.6510     2.9170 c3         1 FV8       0.021500
     13 N           -6.7950    -1.6440     1.8080 n2         1 FV8      -0.564900
     14 CB          -6.0900    -3.0280     3.5710 c3         1 FV8       0.161100
     15 CG2         -5.9950    -2.9390     5.0960 c3         1 FV8      -0.002100
     16 OG1         -7.4450    -3.2840     3.1510 os         1 FV8      -0.414400
     17 CAR         -7.6600    -2.5880     2.0150 ce         1 FV8       0.636200
     18 CAV         -8.7790    -2.8740     1.0920 ca         1 FV8      -0.139900
     19 CAH         -9.6760    -3.9060     1.3760 ca         1 FV8      -0.071000
     20 CAF        -10.7190    -4.1700     0.5140 ca         1 FV8      -0.112000
     21 CAG        -10.8820    -3.4170    -0.6360 ca         1 FV8      -0.123000
     22 CAS        -10.0000    -2.3900    -0.9310 ca         1 FV8       0.058100
     23 OAC        -10.1670    -1.6550    -2.0630 oh         1 FV8      -0.492100
     24 CAU         -8.9470    -2.1080    -0.0660 ca         1 FV8       0.161100
     25 OAD         -8.0810    -1.1020    -0.3510 oh         1 FV8      -0.450100
     26 H1          -0.6460     0.0000    -0.8700 h4         1 FV8       0.160000
     27 H2           1.9620     0.0010    -0.8050 hn         1 FV8       0.120700
     28 H3           2.7950     0.0000     1.6340 h5         1 FV8       0.022100
     29 H5          -2.0090     0.9300     2.3110 hc         1 FV8       0.030200
     30 H6          -2.4890    -0.0810     0.9410 hc         1 FV8       0.030200
     31 H7          -1.3530    -1.0940     3.5730 h1         1 FV8       0.041200
     32 H8          -1.8320    -2.1040     2.2030 h1         1 FV8       0.041200
     33 H9          -3.2030     0.0190     4.7320 ho         1 FV8       0.406000
     34 H10         -6.0300    -0.8490     3.6150 h1         1 FV8       0.062700
     35 H11         -5.4170    -3.7790     3.1770 h1         1 FV8       0.038700
     36 H12         -4.9640    -3.0680     5.4020 hc         1 FV8       0.017033
     37 H13         -6.6030    -3.7170     5.5420 hc         1 FV8       0.017033
     38 H14         -6.3510    -1.9700     5.4250 hc         1 FV8       0.017033
     39 H15         -9.5530    -4.4980     2.2750 ha         1 FV8       0.117000
     40 H16        -11.4130    -4.9710     0.7380 ha         1 FV8       0.107000
     41 H17        -11.7040    -3.6310    -1.3090 ha         1 FV8       0.110000
     42 H18        -10.1070    -2.2190    -2.8160 ho         1 FV8       0.408000
     43 H19         -8.5470    -0.2820    -0.3710 ho         1 FV8       0.406000
@<TRIPOS>BOND
     1     1     2 1   
     2     1     5 2   
     3     1    26 1   
     4     2     3 1   
     5     2    27 1   
     6     3     4 2   
     7     3    28 1   
     8     4     5 1   
     9     5     6 1   
    10     6     7 1   
    11     6    29 1   
    12     6    30 1   
    13     7     8 1   
    14     7    31 1   
    15     7    32 1   
    16     8     9 1   
    17     8    10 1   
    18     9    33 1   
    19    10    11 2   
    20    10    12 1   
    21    12    13 1   
    22    12    14 1   
    23    12    34 1   
    24    13    17 2   
    25    14    15 1   
    26    14    16 1   
    27    14    35 1   
    28    15    36 1   
    29    15    37 1   
    30    15    38 1   
    31    16    17 1   
    32    17    18 1   
    33    18    19 ar  
    34    18    24 ar  
    35    19    20 ar  
    36    19    39 1   
    37    20    21 ar  
    38    20    40 1   
    39    21    22 ar  
    40    21    41 1   
    41    22    23 1   
    42    22    24 ar  
    43    23    42 1   
    44    24    25 1   
    45    25    43 1   
@<TRIPOS>SUBSTRUCTURE
     1 FV8         1 TEMP              0 ****  ****    0 ROOT
