@<TRIPOS>MOLECULE
molecule
   43    45     1     0     0
SMALL
bcc


@<TRIPOS>ATOM
      1 CAJ          0.0000     0.0000     0.0000 cc         1 FV8      -0.257600
      2 NAN          1.3680     0.0000     0.0000 na         1 FV8      -0.298900
      3 CAI          1.7670     0.0000     1.2910 cc         1 FV8       0.396400
      4 NAO          0.7110    -0.0010     2.0550 nd         1 FV8      -0.705000
      5 CAT         -0.3900    -0.0010     1.2880 cd         1 FV8       0.310600
      6 CAK         -1.8130     0.0040     1.7830 c3         1 FV8      -0.115700
      7 CAL         -2.0280    -1.1790     2.7300 c3         1 FV8       0.110000
      8 NAY         -3.4130    -1.1740     3.2110 n          1 FV8      -0.376300
      9 OAE         -3.7010    -0.7560     4.5320 oh         1 FV8      -0.399100
     10 C           -4.4100    -1.5690     2.3960 c          1 FV8       0.695100
     11 O           -4.1720    -1.8570     1.2420 o          1 FV8      -0.567100
     12 CA          -5.8220    -1.6510     2.9170 c3         1 FV8       0.009500
     13 N           -6.7950    -1.6440     1.8080 n2         1 FV8      -0.593900
     14 CB          -6.0900    -3.0280     3.5710 c3         1 FV8       0.121100
     15 CG2         -5.9950    -2.9390     5.0960 c3         1 FV8      -0.087100
     16 OG1         -7.4450    -3.2840     3.1510 os         1 FV8      -0.438400
     17 CAR         -7.6600    -2.5880     2.0150 ce         1 FV8       0.631200
     18 CAV         -8.7790    -2.8740     1.0920 ca         1 FV8      -0.122900
     19 CAH         -9.6760    -3.9060     1.3760 ca         1 FV8      -0.090000
     20 CAF        -10.7190    -4.1700     0.5140 ca         1 FV8      -0.138000
     21 CAG        -10.8820    -3.4170    -0.6360 ca         1 FV8      -0.142000
     22 CAS        -10.0000    -2.3900    -0.9310 ca         1 FV8       0.050100
     23 OAC        -10.1670    -1.6550    -2.0630 oh         1 FV8      -0.514100
     24 CAU         -8.9470    -2.1080    -0.0660 ca         1 FV8       0.152100
     25 OAD         -8.0810    -1.1020    -0.3510 oh         1 FV8      -0.473100
     26 H1          -0.6460     0.0000    -0.8700 h4         1 FV8       0.182000
     27 H2           1.9620     0.0010    -0.8050 hn         1 FV8       0.299700
     28 H3           2.7950     0.0000     1.6340 h5         1 FV8       0.064100
     29 H5          -2.0090     0.9300     2.3110 hc         1 FV8       0.064200
     30 H6          -2.4890    -0.0810     0.9410 hc         1 FV8       0.064200
     31 H7          -1.3530    -1.0940     3.5730 h1         1 FV8       0.073700
     32 H8          -1.8320    -2.1040     2.2030 h1         1 FV8       0.073700
     33 H9          -3.2030     0.0190     4.7320 ho         1 FV8       0.409000
     34 H10         -6.0300    -0.8490     3.6150 h1         1 FV8       0.097700
     35 H11         -5.4170    -3.7790     3.1770 h1         1 FV8       0.075700
     36 H12         -4.9640    -3.0680     5.4020 hc         1 FV8       0.052033
     37 H13         -6.6030    -3.7170     5.5420 hc         1 FV8       0.052033
     38 H14         -6.3510    -1.9700     5.4250 hc         1 FV8       0.052033
     39 H15         -9.5530    -4.4980     2.2750 ha         1 FV8       0.152000
     40 H16        -11.4130    -4.9710     0.7380 ha         1 FV8       0.138000
     41 H17        -11.7040    -3.6310    -1.3090 ha         1 FV8       0.139000
     42 H18        -10.1070    -2.2190    -2.8160 ho         1 FV8       0.426000
     43 H19         -8.5470    -0.2820    -0.3710 ho         1 FV8       0.429000
@<TRIPOS>BOND
     1    23    22 1
     2    22    21 ar
     3    22    24 ar
     4     2     3 1
     5     2     1 1
     6    25    24 1
     7     3     4 2
     8     1     5 2
     9    21    20 ar
    10     4     5 1
    11    24    18 ar
    12     5     6 1
    13     6     7 1
    14     9     8 1
    15    20    19 ar
    16    18    19 ar
    17    18    17 1
    18    13    17 2
    19    13    12 1
    20     8     7 1
    21     8    10 1
    22    17    16 1
    23    12    10 1
    24    12    14 1
    25    10    11 2
    26    16    14 1
    27    14    15 1
    28     1    26 1
    29     2    27 1
    30     3    28 1
    31     6    29 1
    32     6    30 1
    33     7    31 1
    34     7    32 1
    35     9    33 1
    36    12    34 1
    37    14    35 1
    38    15    36 1
    39    15    37 1
    40    15    38 1
    41    19    39 1
    42    20    40 1
    43    21    41 1
    44    23    42 1
    45    25    43 1
@<TRIPOS>SUBSTRUCTURE
     1 FV8         1 TEMP              0 ****  ****    0 ROOT
