@<TRIPOS>MOLECULE
molecule
   48    51     1     0     0
SMALL
bcc


@<TRIPOS>ATOM
      1 OBD          0.0000     0.0000     0.0000 o          1 FV9      -0.802000
      2 PBB          1.6100     0.0000     0.0000 p5         1 FV9       1.002700
      3 OBE          2.1040     0.0000     1.3960 o          1 FV9      -0.802000
      4 OBC          2.1470    -1.3150    -0.7580 o          1 FV9      -0.802000
      5 CAB          2.2180     1.4870    -0.8600 c3         1 FV9       0.052100
      6 PBF          1.6100     2.9770    -0.0010 p5         1 FV9       1.002700
      7 OBH          0.0000     2.9770    -0.0020 o          1 FV9      -0.802000
      8 OBI          2.1460     2.9780     1.5170 o          1 FV9      -0.802000
      9 OBG          2.1040     4.1840    -0.6990 o          1 FV9      -0.802000
     10 NAA          3.6830     1.4880    -0.8590 nu         1 FV9      -0.716900
     11 C4           4.3750     2.3340    -1.7070 ca         1 FV9       0.740200
     12 N3           3.7240     3.1510    -2.5170 nb         1 FV9      -0.700000
     13 C5           5.7950     2.3420    -1.7150 ca         1 FV9      -0.431400
     14 CAI          6.7430     1.5670    -0.9380 cc         1 FV9      -0.034200
     15 CAJ          8.0120     1.8230    -1.1950 cd         1 FV9      -0.197400
     16 SAK          8.1770     3.0570    -2.4300 ss         1 FV9      -0.333900
     17 C6           6.4350     3.2220    -2.5940 ca         1 FV9       0.592600
     18 N1           5.6950     4.0090    -3.3820 nb         1 FV9      -0.820000
     19 C2           4.3750     3.9700    -3.3370 cp         1 FV9       0.785500
     20 CAL          3.5980     4.8670    -4.2250 cp         1 FV9      -0.092500
     21 CAQ          4.2580     5.7340    -5.0930 ca         1 FV9      -0.096000
     22 CAM          2.2040     4.8410    -4.2000 ca         1 FV9      -0.071000
     23 CAN          1.4820     5.6760    -5.0290 ca         1 FV9      -0.147000
     24 CAO          2.1370     6.5410    -5.8850 ca         1 FV9      -0.206000
     25 CAP          3.5260     6.5700    -5.9210 ca         1 FV9       0.027600
     26 NAR          4.1840     7.4430    -6.7940 ns         1 FV9      -0.478100
     27 CAS          5.3590     7.0820    -7.3490 c          1 FV9       0.652700
     28 OAU          5.7990     5.9640    -7.1670 o          1 FV9      -0.649100
     29 CAT          6.1120     8.0470    -8.1760 ca         1 FV9      -0.261600
     30 CAV          7.3290     7.6760    -8.7510 ca         1 FV9      -0.104000
     31 CAW          8.0270     8.5790    -9.5230 ca         1 FV9      -0.183500
     32 CAX          7.5230     9.8540    -9.7290 ca         1 FV9      -0.093100
     33 FBA          8.2110    10.7360   -10.4880 f          1 FV9      -0.211900
     34 CAY          6.3140    10.2280    -9.1610 ca         1 FV9      -0.183500
     35 CAZ          5.6050     9.3300    -8.3910 ca         1 FV9      -0.104000
     36 H3           1.8570     1.4870    -1.8810 h1         1 FV9       0.077700
     37 H6           4.1840     0.8630    -0.2600 hn         1 FV9       0.461800
     38 H7           6.4330     0.8330    -0.2040 ha         1 FV9       0.145000
     39 H8           8.8450     1.3330    -0.7060 h4         1 FV9       0.126000
     40 H9           5.3410     5.7560    -5.1200 ha         1 FV9       0.178000
     41 H10          1.6870     4.1640    -3.5300 ha         1 FV9       0.204000
     42 H11          0.3990     5.6560    -5.0060 ha         1 FV9       0.110000
     43 H12          1.5650     7.1950    -6.5330 ha         1 FV9       0.085000
     44 H13          3.7310     8.2850    -7.0910 hn         1 FV9       0.297500
     45 H14          7.7580     6.7050    -8.5330 ha         1 FV9       0.109000
     46 H15          8.9710     8.2920    -9.9710 ha         1 FV9       0.083000
     47 H16          5.9270    11.2260    -9.3230 ha         1 FV9       0.083000
     48 H17          4.7570     9.9130    -8.0550 ha         1 FV9       0.109000
@<TRIPOS>BOND
     1    10     5 1
     2    10    11 1
     3     5     6 1
     4     5     2 1
     5     9     6 1
     6     3     2 1
     7     7     6 1
     8     1     2 1
     9     6     8 1
    10    14    15 2
    11    14    13 1
    12     2     4 1
    13    11    13 ar
    14    11    12 ar
    15    15    16 1
    16    13    17 ar
    17    12    19 ar
    18    17    16 1
    19    17    18 ar
    20    19    18 ar
    21    19    20 1
    22    22    20 ar
    23    22    23 ar
    24    20    21 ar
    25    23    24 ar
    26    21    25 ar
    27    24    25 ar
    28    28    27 2
    29    25    26 1
    30    27    26 1
    31    27    29 1
    32    35    29 ar
    33    35    34 ar
    34    29    30 ar
    35    34    32 ar
    36    30    31 ar
    37    32    31 ar
    38    32    33 1
    39     5    36 1
    40    10    37 1
    41    14    38 1
    42    15    39 1
    43    21    40 1
    44    22    41 1
    45    23    42 1
    46    24    43 1
    47    26    44 1
    48    30    45 1
    49    31    46 1
    50    34    47 1
    51    35    48 1
@<TRIPOS>SUBSTRUCTURE
     1 FV9         1 TEMP              0 ****  ****    0 ROOT
