@<TRIPOS>MOLECULE
FVD
   61    65     1     0     0
SMALL
bcc


@<TRIPOS>ATOM
      1 N1           0.0000     0.0000     0.0000 na         1 FVD       0.314700
      2 N3           4.3610     0.8150    -2.7360 n7         1 FVD      -0.580200
      3 C4          -1.2220    -1.4120    -1.5480 ca         1 FVD      -0.137300
      4 C5          -0.8700     0.0050    -1.1790 c3         1 FVD       0.024600
      5 C6           1.3650     0.0000     0.0000 cc         1 FVD       0.318700
      6 C7           3.5210    -0.4490    -0.8150 c3         1 FVD       0.143300
      7 C8           4.3440    -0.5120    -2.1040 c3         1 FVD       0.144300
      8 C10          2.1740     1.3260    -1.7610 c3         1 FVD       0.143300
      9 C13          1.8880    -0.0120     4.3290 ce         1 FVD      -0.066400
     10 C15          3.8190    -1.2510     5.2670 c3         1 FVD       0.199000
     11 C17          2.2990     1.2600     5.0170 c3         1 FVD       0.039800
     12 C20         -1.6490     0.0040     1.9460 ca         1 FVD      -0.091000
     13 C21         -0.4090     0.0000     1.3240 ca         1 FVD      -0.246200
     14 C22         -2.4020    -1.9720    -1.0930 ca         1 FVD      -0.065000
     15 C14          2.5710    -1.1310     4.4400 c2         1 FVD      -0.141200
     16 N5           4.3610     0.0820     5.5650 n7         1 FVD      -0.574200
     17 C16          3.3080     0.9460     6.1230 c3         1 FVD       0.143800
     18 C12          0.6670    -0.0070     3.5000 ca         1 FVD       0.024200
     19 C18         -0.5880    -0.0020     4.1020 ca         1 FVD      -0.113000
     20 C19         -1.7340     0.0030     3.3260 ca         1 FVD      -0.023600
     21 Cl1         -3.2920     0.0080     4.0920 cl         1 FVD      -0.034400
     22 C11          0.7630    -0.0050     2.0950 ca         1 FVD       0.090400
     23 N4           1.8110     0.0000     1.2320 nd         1 FVD      -0.547100
     24 N2           2.1570    -0.0000    -1.1290 nh         1 FVD      -0.433600
     25 C9           2.9970     1.2640    -3.0500 c3         1 FVD       0.144300
     26 C3          -0.3690    -2.1500    -2.3480 ca         1 FVD      -0.065000
     27 C2          -0.6950    -3.4490    -2.6930 ca         1 FVD      -0.111800
     28 C1           0.2330    -4.2510    -3.5690 c3         1 FVD       0.066200
     29 C25         -1.8760    -4.0110    -2.2380 ca         1 FVD       0.113900
     30 F1          -2.1940    -5.2790    -2.5750 f          1 FVD      -0.124900
     31 C23         -2.7260    -3.2720    -1.4330 ca         1 FVD      -0.111800
     32 H1           4.9020     0.7770    -3.5770 hn         1 FVD       0.254800
     33 H3          -1.7760     0.5560    -0.9560 h1         1 FVD       0.041700
     34 H4          -0.3540     0.4770    -2.0060 h1         1 FVD       0.041700
     35 H5           3.4810    -1.4340    -0.3650 h1         1 FVD       0.030700
     36 H6           3.9810     0.2500    -0.1270 h1         1 FVD       0.030700
     37 H7           3.8970    -1.2280    -2.7820 h1         1 FVD       0.010700
     38 H8           5.3580    -0.8120    -1.8690 h1         1 FVD       0.010700
     39 H9           1.1600     1.6260    -1.9950 h1         1 FVD       0.030700
     40 H10          2.6210     2.0430    -1.0830 h1         1 FVD       0.030700
     41 H11          3.5850    -1.7570     6.1960 h1         1 FVD       0.009200
     42 H12          4.5580    -1.8220     4.7190 h1         1 FVD       0.009200
     43 H13          2.7530     1.9280     4.2950 hc         1 FVD       0.026200
     44 H14          1.4250     1.7310     5.4510 hc         1 FVD       0.026200
     45 H15         -2.5530     0.0080     1.3490 ha         1 FVD       0.111000
     46 H16         -3.0920    -1.3780    -0.5070 ha         1 FVD       0.119000
     47 H17         -4.7420    -3.8840    -1.7370 hc         1 FVD       0.013533
     48 H18         -4.3900    -3.3000    -0.1050 hc         1 FVD       0.013533
     49 H19         -3.8280    -4.8980    -0.6120 hc         1 FVD       0.013533
     50 H20          2.2170    -2.0070     3.9100 ha         1 FVD       0.107000
     51 H21          5.1080    -0.0020     6.2250 hn         1 FVD       0.247800
     52 H23          3.7480     1.8670     6.4850 h1         1 FVD       0.004700
     53 H24          2.8080     0.4310     6.9350 h1         1 FVD       0.004700
     54 H25         -0.6680    -0.0030     5.1820 ha         1 FVD       0.121000
     55 H26          3.0360     2.2480    -3.5000 h1         1 FVD       0.010700
     56 H27          2.5370     0.5640    -3.7370 h1         1 FVD       0.010700
     57 H28          0.5300    -1.6950    -2.7450 ha         1 FVD       0.119000
     58 H29         -0.3370    -4.7270    -4.3580 hc         1 FVD       0.013533
     59 H30          0.9750    -3.5940    -4.0060 hc         1 FVD       0.013533
     60 H31          0.7270    -5.0080    -2.9730 hc         1 FVD       0.013533
     61 C24         -4.0120    -3.8810    -0.9370 c3         1 FVD       0.066200
@<TRIPOS>BOND
     1     1     4 1   
     2     1     5 1   
     3     1    13 1   
     4     2     7 1   
     5     2    25 1   
     6     2    32 1   
     7     3     4 1   
     8     3    14 ar  
     9     3    26 ar  
    10     4    33 1   
    11     4    34 1   
    12     5    23 2   
    13     5    24 1   
    14     6     7 1   
    15     6    24 1   
    16     6    35 1   
    17     6    36 1   
    18     7    37 1   
    19     7    38 1   
    20     8    24 1   
    21     8    25 1   
    22     8    39 1   
    23     8    40 1   
    24     9    11 1   
    25     9    15 2   
    26     9    18 1   
    27    10    15 1   
    28    10    16 1   
    29    10    41 1   
    30    10    42 1   
    31    11    17 1   
    32    11    43 1   
    33    11    44 1   
    34    12    13 ar  
    35    12    20 ar  
    36    12    45 1   
    37    13    22 ar  
    38    14    31 ar  
    39    14    46 1   
    40    15    50 1   
    41    16    17 1   
    42    16    51 1   
    43    17    52 1   
    44    17    53 1   
    45    18    19 ar  
    46    18    22 ar  
    47    19    20 ar  
    48    19    54 1   
    49    20    21 1   
    50    22    23 1   
    51    25    55 1   
    52    25    56 1   
    53    26    27 ar  
    54    26    57 1   
    55    27    28 1   
    56    27    29 ar  
    57    28    58 1   
    58    28    59 1   
    59    28    60 1   
    60    29    30 1   
    61    29    31 ar  
    62    31    61 1   
    63    47    61 1   
    64    48    61 1   
    65    49    61 1   
@<TRIPOS>SUBSTRUCTURE
     1 FVD         1 TEMP              0 ****  ****    0 ROOT
