@<TRIPOS>MOLECULE
FVF
   74    76     1     0     0
SMALL
bcc


@<TRIPOS>ATOM
      1 C1           0.0000     0.0000     0.0000 c          1 FVF       0.666100
      2 O1           1.2160     0.0000     0.0000 o          1 FVF      -0.691000
      3 OA1         -0.6720     0.0000     1.1660 os         1 FVF      -0.428900
      4 CB1          0.0540    -0.0010     2.4230 c3         1 FVF       0.302700
      5 CG1         -0.9250    -0.0010     3.5690 ca         1 FVF      -0.100300
      6 CDB         -1.3730    -1.1970     4.0940 ca         1 FVF      -0.073500
      7 CDC         -1.3690     1.1970     4.0980 ca         1 FVF      -0.073500
      8 CEB         -2.2710    -1.1980     5.1450 ca         1 FVF      -0.112000
      9 CEC         -2.2700     1.1960     5.1470 ca         1 FVF      -0.112000
     10 CZ1         -2.7200    -0.0020     5.6710 ca         1 FVF      -0.104000
     11 N2          -0.6730     0.0010    -1.1670 ns         1 FVF      -0.116900
     12 C2          -0.7560     0.7120    -3.4860 c          1 FVF       0.529100
     13 O2          -1.8400     1.1740    -3.2010 o          1 FVF      -0.647100
     14 CA2          0.0590     0.0010    -2.4360 c3         1 FVF      -0.052300
     15 CB2          0.3130    -1.4400    -2.8780 c3         1 FVF       0.005900
     16 CG2          1.1280    -2.1520    -1.8280 ca         1 FVF      -0.054300
     17 CDL          0.4940    -2.8230    -0.7990 ca         1 FVF      -0.088500
     18 CDM          2.5080    -2.1370    -1.8970 ca         1 FVF      -0.088500
     19 CEL          1.2410    -3.4750     0.1640 ca         1 FVF      -0.105500
     20 CEM          3.2550    -2.7850    -0.9320 ca         1 FVF      -0.105500
     21 CZ2          2.6220    -3.4560     0.0980 ca         1 FVF      -0.123000
     22 N3          -0.2780     0.8350    -4.7390 ns         1 FVF      -0.075900
     23 CA3         -1.0700     1.5270    -5.7600 c3         1 FVF      -0.018500
     24 CB3         -0.1320     2.1840    -6.7740 c3         1 FVF      -0.016700
     25 CGD          0.7330     1.1100    -7.4400 c3         1 FVF      -0.049600
     26 CGN         -0.9590     2.9050    -7.8400 c3         1 FVF      -0.049600
     27 P3          -2.1430     0.3260    -6.6130 p5         1 FVF       0.630600
     28 OPV         -1.3070    -0.7120    -7.2560 o          1 FVF      -0.652000
     29 OPW         -3.1290    -0.3650    -5.5450 o          1 FVF      -0.652000
     30 OPX         -3.0120     1.0840    -7.7350 os         1 FVF      -0.430200
     31 CA4         -3.8280     0.0960    -8.3650 c3         1 FVF       0.121100
     32 C4          -3.5070     0.0420    -9.8360 c          1 FVF       0.984600
     33 O4          -2.6660     0.7740   -10.2970 o          1 FVF      -0.923300
     34 O11         -4.1550    -0.8210   -10.6330 o          1 FVF      -0.923300
     35 CB4         -5.3030     0.4570    -8.1790 c3         1 FVF       0.013900
     36 CG4         -5.6250     0.5120    -6.7080 ca         1 FVF      -0.017300
     37 CD5         -5.4860     1.6980    -6.0130 ca         1 FVF      -0.075500
     38 CD6         -6.0650    -0.6240    -6.0540 ca         1 FVF      -0.075500
     39 CE5         -5.7810     1.7470    -4.6630 ca         1 FVF      -0.105000
     40 CE6         -6.3560    -0.5760    -4.7030 ca         1 FVF      -0.105000
     41 CZ4         -6.2160     0.6110    -4.0090 ca         1 FVF      -0.130000
     42 HB11         0.6770    -0.8860     2.4800 h1         1 FVF       0.008200
     43 HB21         0.6780     0.8830     2.4810 h1         1 FVF       0.008200
     44 HD11        -1.0220    -2.1350     3.6820 ha         1 FVF       0.108500
     45 HD21        -1.0160     2.1350     3.6880 ha         1 FVF       0.108500
     46 HE11        -2.6230    -2.1360     5.5560 ha         1 FVF       0.097000
     47 HE21        -2.6200     2.1340     5.5600 ha         1 FVF       0.097000
     48 HZ1         -3.4250    -0.0020     6.4940 ha         1 FVF       0.093000
     49 HN2         -1.6740     0.0110    -1.1670 hn         1 FVF       0.205500
     50 HA2          1.0060     0.5120    -2.3060 h1         1 FVF       0.051700
     51 HB12         0.8550    -1.4400    -3.8160 hc         1 FVF       0.049200
     52 HB22        -0.6340    -1.9500    -3.0070 hc         1 FVF       0.049200
     53 HD12        -0.5880    -2.8380    -0.7480 ha         1 FVF       0.106500
     54 HD22         3.0040    -1.6110    -2.7040 ha         1 FVF       0.106500
     55 HE12         0.7440    -4.0010     0.9700 ha         1 FVF       0.086500
     56 HE22         4.3370    -2.7720    -0.9850 ha         1 FVF       0.086500
     57 HZ2          3.2080    -3.9660     0.8540 ha         1 FVF       0.084000
     58 HN3          0.6440     0.5120    -4.9560 hn         1 FVF       0.158500
     59 HA3         -1.6820     2.2860    -5.2880 h1         1 FVF       0.056700
     60 HB3          0.5050     2.8980    -6.2670 hc         1 FVF      -0.033300
     61 H113         1.3010     0.5840    -6.6820 hc         1 FVF       0.021700
     62 H123         0.0960     0.4090    -7.9660 hc         1 FVF       0.021700
     63 H133         1.4130     1.5780    -8.1410 hc         1 FVF       0.021700
     64 H213        -1.9060     3.2150    -7.4150 hc         1 FVF       0.021700
     65 H223        -0.4180     3.7770    -8.1880 hc         1 FVF       0.021700
     66 H233        -1.1390     2.2360    -8.6730 hc         1 FVF       0.021700
     67 HA4         -3.6340    -0.8710    -7.9180 h1         1 FVF       0.047700
     68 HB14        -5.4980     1.4240    -8.6280 hc         1 FVF       0.011700
     69 HB24        -5.9210    -0.2940    -8.6560 hc         1 FVF       0.011700
     70 HD14        -5.1440     2.5890    -6.5260 ha         1 FVF       0.095000
     71 HD24        -6.1750    -1.5540    -6.5990 ha         1 FVF       0.095000
     72 HE14        -5.6710     2.6770    -4.1180 ha         1 FVF       0.069000
     73 HE24        -6.6990    -1.4670    -4.1910 ha         1 FVF       0.069000
     74 HZ4         -6.4460     0.6490    -2.9510 ha         1 FVF       0.067000
@<TRIPOS>BOND
     1     1     2 2   
     2     1     3 1   
     3     1    11 1   
     4     3     4 1   
     5     4     5 1   
     6     4    42 1   
     7     4    43 1   
     8     5     6 ar  
     9     5     7 ar  
    10     6     8 ar  
    11     6    44 1   
    12     7     9 ar  
    13     7    45 1   
    14     8    10 ar  
    15     8    46 1   
    16     9    10 ar  
    17     9    47 1   
    18    10    48 1   
    19    11    14 1   
    20    11    49 1   
    21    12    13 2   
    22    12    14 1   
    23    12    22 1   
    24    14    15 1   
    25    14    50 1   
    26    15    16 1   
    27    15    51 1   
    28    15    52 1   
    29    16    17 ar  
    30    16    18 ar  
    31    17    19 ar  
    32    17    53 1   
    33    18    20 ar  
    34    18    54 1   
    35    19    21 ar  
    36    19    55 1   
    37    20    21 ar  
    38    20    56 1   
    39    21    57 1   
    40    22    23 1   
    41    22    58 1   
    42    23    24 1   
    43    23    27 1   
    44    23    59 1   
    45    24    25 1   
    46    24    26 1   
    47    24    60 1   
    48    25    61 1   
    49    25    62 1   
    50    25    63 1   
    51    26    64 1   
    52    26    65 1   
    53    26    66 1   
    54    27    28 1   
    55    27    29 1   
    56    27    30 1   
    57    30    31 1   
    58    31    32 1   
    59    31    35 1   
    60    31    67 1   
    61    32    33 1   
    62    32    34 1   
    63    35    36 1   
    64    35    68 1   
    65    35    69 1   
    66    36    37 ar  
    67    36    38 ar  
    68    37    39 ar  
    69    37    70 1   
    70    38    40 ar  
    71    38    71 1   
    72    39    41 ar  
    73    39    72 1   
    74    40    41 ar  
    75    40    73 1   
    76    41    74 1   
@<TRIPOS>SUBSTRUCTURE
     1 FVF         1 TEMP              0 ****  ****    0 ROOT
