@<TRIPOS>MOLECULE
FVG
   66    70     1     0     0
SMALL
bcc


@<TRIPOS>ATOM
      1 N1           0.0000     0.0000     0.0000 nc         1 FVG      -0.596100
      2 N3          -1.9180    -2.5910     0.3420 nz         1 FVG       0.047400
      3 C4           3.1780    -0.0010     1.7010 c3         1 FVG       0.025600
      4 C5           1.3090     0.0000     0.0000 cd         1 FVG       0.347700
      5 C6          -0.4560    -0.0010     1.2820 ca         1 FVG       0.046400
      6 C7          -1.7390    -0.0010     1.8480 ca         1 FVG      -0.011400
      7 C8          -1.8810    -0.0020     3.2230 ca         1 FVG      -0.124000
      8 C10          0.5060    -0.0020     3.5000 ca         1 FVG      -0.053000
      9 C13         -5.1080     0.7160     1.6400 c3         1 FVG      -0.036400
     10 C15         -3.7080    -1.2030     1.2720 c3         1 FVG       0.087500
     11 C17          1.8180     1.1710    -1.9720 c3         1 FVG       0.153300
     12 C20          1.9350    -1.2450    -1.8920 c3         1 FVG       0.153300
     13 C21          3.5330     2.0570     3.0810 ca         1 FVG      -0.070500
     14 C22          3.9740     3.3580     3.2310 ca         1 FVG      -0.103300
     15 C24          4.5390     4.0230     2.1560 ca         1 FVG       0.129900
     16 N            1.7730     0.0000     1.2840 na         1 FVG       0.353700
     17 C1           4.6620     3.3850     0.9330 ca         1 FVG      -0.103300
     18 C11          0.6680    -0.0010     2.1200 ca         1 FVG      -0.245200
     19 C12         -3.6940     1.1990     1.2550 c3         1 FVG       0.151800
     20 C14         -5.1630    -0.7200     1.0540 c3         1 FVG      -0.012400
     21 C16         -3.3580    -2.3100     0.2760 c3         1 FVG      -0.029200
     22 C18          2.7700     1.1770    -3.1710 c3         1 FVG       0.152300
     23 C19          2.8870    -1.2390    -3.0900 c3         1 FVG       0.152300
     24 C2           4.2180     2.0840     0.7870 ca         1 FVG      -0.070500
     25 C23          3.8410     4.0520     4.5620 c3         1 FVG       0.063200
     26 C3           3.6540     1.4200     1.8600 ca         1 FVG      -0.156300
     27 C9          -0.7620    -0.0020     4.0450 ca         1 FVG      -0.040600
     28 N2          -2.8690    -0.0020     1.0260 nh         1 FVG      -0.402000
     29 N4           2.1020     0.0010    -1.1300 nh         1 FVG      -0.472600
     30 N5           2.6040    -0.0690    -3.9320 n7         1 FVG      -0.581200
     31 Cl          -0.9590    -0.0030     5.7700 cl         1 FVG       0.029600
     32 H1          -1.7330    -3.4850    -0.0700 hn         1 FVG       0.234133
     33 H2          -1.6220    -2.5970     1.2980 hn         1 FVG       0.234133
     34 H4           3.2740    -0.5220     2.6460 h1         1 FVG       0.048700
     35 H5           3.7770    -0.5010     0.9500 h1         1 FVG       0.048700
     36 H6          -2.8710    -0.0020     3.6620 ha         1 FVG       0.133000
     37 H7           1.3740    -0.0020     4.1480 ha         1 FVG       0.128000
     38 H8          -5.2220     0.6920     2.7170 hc         1 FVG       0.036700
     39 H9          -5.8620     1.3440     1.1820 hc         1 FVG       0.036700
     40 H10         -3.5770    -1.5490     2.2900 h1         1 FVG       0.045700
     41 H11          1.9320     2.0810    -1.3950 h1         1 FVG       0.021700
     42 H12          0.7700     0.9480    -2.1300 h1         1 FVG       0.021700
     43 H13          0.9140    -1.3180    -2.2440 h1         1 FVG       0.021700
     44 H14          2.1650    -2.0900    -1.2540 h1         1 FVG       0.021700
     45 H15          3.0900     1.5350     3.9220 ha         1 FVG       0.115000
     46 H16          5.8310     3.4040    -0.8450 hc         1 FVG       0.018033
     47 H17          4.4930     4.5620    -0.8320 hc         1 FVG       0.018033
     48 H18          5.9460     4.8780     0.1260 hc         1 FVG       0.018033
     49 H19         -3.7420     1.7910     0.3490 h1         1 FVG       0.040700
     50 H20         -3.2730     1.7850     2.0640 h1         1 FVG       0.040700
     51 H21         -5.8610    -1.3360     1.6080 hc         1 FVG       0.036700
     52 H22         -5.4070    -0.6960    -0.0010 hc         1 FVG       0.036700
     53 H23         -3.6180    -1.9910    -0.7260 hx         1 FVG       0.081200
     54 H24         -3.9130    -3.2070     0.5240 hx         1 FVG       0.081200
     55 H25          3.7920     1.2500    -2.8190 h1         1 FVG       0.019200
     56 H26          2.5400     2.0220    -3.8090 h1         1 FVG       0.019200
     57 H27          2.7430    -2.1430    -3.6690 h1         1 FVG       0.019200
     58 H28          3.9100    -1.1890    -2.7360 h1         1 FVG       0.019200
     59 H29          4.3130     1.5840    -0.1690 ha         1 FVG       0.115000
     60 H30          3.3560     3.3890     5.2680 hc         1 FVG       0.018033
     61 H31          4.8250     4.3160     4.9310 hc         1 FVG       0.018033
     62 H32          3.2470     4.9500     4.4430 hc         1 FVG       0.018033
     63 H33          3.2230    -0.0650    -4.7170 hn         1 FVG       0.267800
     64 C            5.2760     4.1080    -0.2370 c3         1 FVG       0.063200
     65 H331        -1.4170    -1.8870    -0.1630 hn         1 FVG       0.234133
     66 F            4.9720     5.2960     2.3000 f          1 FVG      -0.116900
@<TRIPOS>BOND
     1     1     4 2   
     2     1     5 1   
     3     2    21 1   
     4     2    32 1   
     5     2    33 1   
     6     2    65 1   
     7     3    16 1   
     8     3    26 1   
     9     3    34 1   
    10     3    35 1   
    11     4    16 1   
    12     4    29 1   
    13     5     6 ar  
    14     5    18 ar  
    15     6     7 ar  
    16     6    28 1   
    17     7    27 ar  
    18     7    36 1   
    19     8    18 ar  
    20     8    27 ar  
    21     8    37 1   
    22     9    19 1   
    23     9    20 1   
    24     9    38 1   
    25     9    39 1   
    26    10    20 1   
    27    10    21 1   
    28    10    28 1   
    29    10    40 1   
    30    11    22 1   
    31    11    29 1   
    32    11    41 1   
    33    11    42 1   
    34    12    23 1   
    35    12    29 1   
    36    12    43 1   
    37    12    44 1   
    38    13    14 ar  
    39    13    26 ar  
    40    13    45 1   
    41    14    15 ar  
    42    14    25 1   
    43    15    17 ar  
    44    15    66 1   
    45    16    18 1   
    46    17    24 ar  
    47    17    64 1   
    48    19    28 1   
    49    19    49 1   
    50    19    50 1   
    51    20    51 1   
    52    20    52 1   
    53    21    53 1   
    54    21    54 1   
    55    22    30 1   
    56    22    55 1   
    57    22    56 1   
    58    23    30 1   
    59    23    57 1   
    60    23    58 1   
    61    24    26 ar  
    62    24    59 1   
    63    25    60 1   
    64    25    61 1   
    65    25    62 1   
    66    27    31 1   
    67    30    63 1   
    68    46    64 1   
    69    47    64 1   
    70    48    64 1   
@<TRIPOS>SUBSTRUCTURE
     1 FVG         1 TEMP              0 ****  ****    0 ROOT
