@<TRIPOS>MOLECULE
FVJ
   61    65     1     0     0
SMALL
bcc


@<TRIPOS>ATOM
      1 N1           0.0000     0.0000     0.0000 nc         1 FVJ      -0.549100
      2 N3          -4.6290    -0.6680    -0.2550 na         1 FVJ       0.452400
      3 C4           3.1770     0.0000     1.7030 c3         1 FVJ       0.024600
      4 C5           1.3100     0.0000     0.0000 cd         1 FVJ       0.316700
      5 C6          -0.4560    -0.0000     1.2780 ca         1 FVJ       0.086400
      6 C7          -1.7440    -0.0010     1.8450 ca         1 FVJ       0.092000
      7 C8          -1.8850    -0.0000     3.2270 ca         1 FVJ      -0.117000
      8 C10          0.5030    -0.0010     3.4970 ca         1 FVJ      -0.096000
      9 C13         -3.6160     1.1380     0.4820 cc         1 FVJ       0.393600
     10 C15         -3.5950    -1.1000     0.4970 cd         1 FVJ      -0.231600
     11 C17          1.3410    -0.4290    -2.3090 c3         1 FVJ       0.143800
     12 C20          2.7060     1.3240    -1.3470 c3         1 FVJ       0.143800
     13 C21          4.2100    -2.0560     0.7210 ca         1 FVJ      -0.066000
     14 C22          4.6640    -3.3580     0.8280 ca         1 FVJ      -0.111800
     15 C24          4.5740    -4.0230     2.0400 ca         1 FVJ       0.112900
     16 N            1.7730     0.0000     1.2850 na         1 FVJ       0.312700
     17 C1           4.0290    -3.3850     3.1410 ca         1 FVJ      -0.111800
     18 C11          0.6660    -0.0010     2.1190 ca         1 FVJ      -0.247200
     19 C12         -2.9430     0.0000     0.9720 cc         1 FVJ      -0.267300
     20 C16         -3.2290    -2.5380     0.7640 c3         1 FVJ       0.097200
     21 C18          2.2740    -0.4910    -3.5210 c3         1 FVJ       0.144300
     22 C19          3.6390     1.2610    -2.5600 c3         1 FVJ       0.144300
     23 C2           3.5760    -2.0840     3.0300 ca         1 FVJ      -0.066000
     24 C23          5.2570    -4.0520    -0.3700 c3         1 FVJ       0.065700
     25 C3           3.6660    -1.4200     1.8210 ca         1 FVJ      -0.136300
     26 C9          -0.7660     0.0000     4.0430 ca         1 FVJ      -0.022600
     27 N2          -4.6170     0.7320    -0.2530 nd         1 FVJ      -0.670800
     28 N4           2.1030     0.0010    -1.1290 nh         1 FVJ      -0.432600
     29 N5           2.8760     0.8310    -3.7400 n7         1 FVJ      -0.579200
     30 Cl          -0.9600     0.0010     5.7680 cl         1 FVJ      -0.034400
     31 H1          -5.2870    -1.2490    -0.7360 hn         1 FVJ       0.144700
     32 H2           3.7720     0.5280     0.9680 h1         1 FVJ       0.041700
     33 H3           3.2670     0.4940     2.6630 h1         1 FVJ       0.041700
     34 H4          -2.8740     0.0010     3.6680 ha         1 FVJ       0.123000
     35 H5           1.3710    -0.0010     4.1450 ha         1 FVJ       0.111000
     36 H6           0.5450     0.2800    -2.5020 h1         1 FVJ       0.030450
     37 H7           0.9200    -1.4110    -2.1270 h1         1 FVJ       0.030450
     38 H8           1.9240     2.0500    -1.5310 h1         1 FVJ       0.030450
     39 H9           3.2740     1.6100    -0.4710 h1         1 FVJ       0.030450
     40 H10          4.2800    -1.5350    -0.2260 ha         1 FVJ       0.119000
     41 H11          4.8800    -4.5770     4.6850 hc         1 FVJ       0.013700
     42 H12          3.1580    -4.8650     4.3990 hc         1 FVJ       0.013700
     43 H13          3.6830    -3.4000     5.2410 hc         1 FVJ       0.013700
     44 H14         -2.2750     2.7820     0.3080 hc         1 FVJ       0.012033
     45 H15         -3.9870     3.2280     0.3200 hc         1 FVJ       0.012033
     46 H16         -3.1910     2.7370     1.8210 hc         1 FVJ       0.012033
     47 H17         -3.9610    -3.1890     0.3010 hc         1 FVJ       0.012033
     48 H18         -2.2490    -2.7430     0.3490 hc         1 FVJ       0.012033
     49 H19         -3.2130    -2.7140     1.8330 hc         1 FVJ       0.012033
     50 H20          1.7060    -0.7780    -4.3980 h1         1 FVJ       0.011200
     51 H21          3.0560    -1.2180    -3.3370 h1         1 FVJ       0.011200
     52 H22          4.4340     0.5520    -2.3670 h1         1 FVJ       0.011200
     53 H23          4.0590     2.2430    -2.7420 h1         1 FVJ       0.011200
     54 H24          3.1490    -1.5840     3.8910 ha         1 FVJ       0.119000
     55 H25          4.4820    -4.6060    -0.8860 hc         1 FVJ       0.013700
     56 H26          5.6810    -3.3140    -1.0410 hc         1 FVJ       0.013700
     57 H27          6.0340    -4.7330    -0.0450 hc         1 FVJ       0.013700
     58 H28          3.4840     0.7930    -4.5350 hn         1 FVJ       0.254800
     59 C14         -3.2410     2.5720     0.7520 c3         1 FVJ      -0.007400
     60 F            5.0170    -5.2950     2.1470 f          1 FVJ      -0.125900
     61 C            3.9310    -4.1070     4.4590 c3         1 FVJ       0.065700
@<TRIPOS>BOND
     1     1     4 2   
     2     1     5 1   
     3     2    10 1   
     4     2    27 1   
     5     2    31 1   
     6     3    16 1   
     7     3    25 1   
     8     3    32 1   
     9     3    33 1   
    10     4    16 1   
    11     4    28 1   
    12     5     6 ar  
    13     5    18 ar  
    14     6     7 ar  
    15     6    19 1   
    16     7    26 ar  
    17     7    34 1   
    18     8    18 ar  
    19     8    26 ar  
    20     8    35 1   
    21     9    19 1   
    22     9    27 2   
    23     9    59 1   
    24    10    19 2   
    25    10    20 1   
    26    11    21 1   
    27    11    28 1   
    28    11    36 1   
    29    11    37 1   
    30    12    22 1   
    31    12    28 1   
    32    12    38 1   
    33    12    39 1   
    34    13    14 ar  
    35    13    25 ar  
    36    13    40 1   
    37    14    15 ar  
    38    14    24 1   
    39    15    17 ar  
    40    15    60 1   
    41    16    18 1   
    42    17    23 ar  
    43    17    61 1   
    44    20    47 1   
    45    20    48 1   
    46    20    49 1   
    47    21    29 1   
    48    21    50 1   
    49    21    51 1   
    50    22    29 1   
    51    22    52 1   
    52    22    53 1   
    53    23    25 ar  
    54    23    54 1   
    55    24    55 1   
    56    24    56 1   
    57    24    57 1   
    58    26    30 1   
    59    29    58 1   
    60    41    61 1   
    61    42    61 1   
    62    43    61 1   
    63    44    59 1   
    64    45    59 1   
    65    46    59 1   
@<TRIPOS>SUBSTRUCTURE
     1 FVJ         1 TEMP              0 ****  ****    0 ROOT
