@<TRIPOS>MOLECULE
molecule
   49    50     1     0     0
SMALL
bcc


@<TRIPOS>ATOM
      1 C4           0.0000     0.0000     0.0000 c3         1 FVK       0.079000
      2 C5          -1.3790     1.9870     0.4090 c          1 FVK       0.791100
      3 C6          -2.6280     4.0680     0.6400 c3         1 FVK       0.128000
      4 C3           1.5330     0.0000     0.0000 c3         1 FVK       0.119400
      5 C1           0.1020     1.2160     2.2080 c3         1 FVK       0.079000
      6 C2           1.6290     1.1570     2.1010 c3         1 FVK       0.119400
      7 O2          -1.9020     1.8260    -0.6780 o          1 FVK      -0.654100
      8 O5          -4.3650     8.8450     0.3860 oh         1 FVK      -0.580800
      9 O4          -7.5000    14.5380     5.3120 oh         1 FVK      -0.519100
     10 O3          -6.1620    10.3000     2.0930 os         1 FVK      -0.328900
     11 O1           2.0040     0.0000     1.3510 os         1 FVK      -0.418600
     12 N1          -0.4640     1.1050     0.8540 n          1 FVK      -0.513800
     13 N2          -1.7170     3.0490     1.1690 ns         1 FVK      -0.610900
     14 C7          -2.8430     5.1550     1.6950 c3         1 FVK       0.138800
     15 N3          -3.7570     6.1760     1.1650 n7         1 FVK      -0.800200
     16 C8          -3.9880     7.2390     2.1530 c3         1 FVK       0.153800
     17 C9          -4.9420     8.2820     1.5660 c3         1 FVK       0.153100
     18 C10         -5.1830     9.3880     2.5950 c3         1 FVK       0.120400
     19 C11         -6.4940    11.3500     2.8910 ca         1 FVK       0.137100
     20 C12         -5.8840    11.5020     4.1270 ca         1 FVK      -0.177500
     21 C13         -6.2220    12.5680     4.9370 ca         1 FVK      -0.114500
     22 C14         -7.1690    13.4880     4.5150 ca         1 FVK       0.065100
     23 C15         -7.7780    13.3380     3.2770 ca         1 FVK      -0.114500
     24 C16         -7.4380    12.2730     2.4650 ca         1 FVK      -0.177500
     25 H1          -0.3640    -0.9410     0.3940 h1         1 FVK       0.060450
     26 H2          -0.3640     0.1440    -1.0100 h1         1 FVK       0.060450
     27 H3          -3.5790     3.6100     0.3940 h1         1 FVK       0.061200
     28 H4          -2.1990     4.5090    -0.2510 h1         1 FVK       0.061200
     29 H5           1.8940    -0.8860    -0.5080 h1         1 FVK       0.055450
     30 H6           1.8940     0.8860    -0.5080 h1         1 FVK       0.055450
     31 H7          -0.1950     2.1600     2.6490 h1         1 FVK       0.060450
     32 H8          -0.2520     0.3950     2.8190 h1         1 FVK       0.060450
     33 H9           2.0580     1.0980     3.0940 h1         1 FVK       0.055450
     34 H10          1.9900     2.0460     1.5970 h1         1 FVK       0.055450
     35 H11         -4.9910     8.8100    -0.3180 ho         1 FVK       0.411000
     36 H12         -8.2190    14.2940     5.8710 ho         1 FVK       0.414000
     37 H13         -1.3760     3.1210     2.1070 hn         1 FVK       0.308500
     38 H14         -1.8930     5.6130     1.9400 h1         1 FVK       0.034200
     39 H15         -3.2730     4.7140     2.5860 h1         1 FVK       0.034200
     40 H16         -4.6300     5.7500     0.9230 hn         1 FVK       0.353800
     41 H18         -3.0460     7.7120     2.4020 h1         1 FVK       0.042200
     42 H19         -4.4260     6.8120     3.0470 h1         1 FVK       0.042200
     43 H20         -5.8840     7.8090     1.3170 h1         1 FVK       0.041700
     44 H21         -5.5380     8.9500     3.5200 h1         1 FVK       0.045200
     45 H22         -4.2570     9.9180     2.7790 h1         1 FVK       0.045200
     46 H23         -5.1440    10.7830     4.4580 ha         1 FVK       0.141000
     47 H24         -5.7460    12.6860     5.9030 ha         1 FVK       0.142500
     48 H25         -8.5150    14.0580     2.9440 ha         1 FVK       0.142500
     49 H26         -7.9130    12.1550     1.4990 ha         1 FVK       0.141000
@<TRIPOS>BOND
     1    11     6 1
     2    11     4 1
     3     6     5 1
     4     4     1 1
     5     5    12 1
     6     1    12 1
     7    12     2 1
     8     2     7 2
     9     2    13 1
    10    13     3 1
    11     3    14 1
    12    14    15 1
    13    15    16 1
    14     8    17 1
    15    16    17 1
    16    17    18 1
    17    18    10 1
    18    10    19 1
    19    19    24 ar
    20    19    20 ar
    21    24    23 ar
    22    20    21 ar
    23    23    22 ar
    24    21    22 ar
    25    22     9 1
    26     1    25 1
    27     1    26 1
    28     3    27 1
    29     3    28 1
    30     4    29 1
    31     4    30 1
    32     5    31 1
    33     5    32 1
    34     6    33 1
    35     6    34 1
    36     8    35 1
    37     9    36 1
    38    13    37 1
    39    14    38 1
    40    14    39 1
    41    15    40 1
    42    16    41 1
    43    16    42 1
    44    17    43 1
    45    18    44 1
    46    18    45 1
    47    20    46 1
    48    21    47 1
    49    23    48 1
    50    24    49 1
@<TRIPOS>SUBSTRUCTURE
     1 FVK         1 TEMP              0 ****  ****    0 ROOT
