@<TRIPOS>MOLECULE
FVK
   49    50     1     0     0
SMALL
bcc


@<TRIPOS>ATOM
      1 C4           0.0000     0.0000     0.0000 c3         1 FVK       0.018000
      2 C5          -1.3790     1.9870     0.4090 c          1 FVK       0.602100
      3 C6          -2.6280     4.0680     0.6400 c3         1 FVK       0.065000
      4 C3           1.5330     0.0000     0.0000 c3         1 FVK       0.197900
      5 C1           0.1020     1.2160     2.2080 c3         1 FVK       0.018000
      6 C2           1.6290     1.1570     2.1010 c3         1 FVK       0.197900
      7 O2          -1.9020     1.8260    -0.6780 o          1 FVK      -0.701100
      8 O5          -4.3650     8.8450     0.3860 oh         1 FVK      -0.564800
      9 O4          -7.5000    14.5380     5.3120 oh         1 FVK      -0.497100
     10 O3          -6.1620    10.3000     2.0930 os         1 FVK      -0.303900
     11 O1           2.0040     0.0000     1.3510 os         1 FVK      -0.404600
     12 N1          -0.4640     1.1050     0.8540 n          1 FVK      -0.180800
     13 N2          -1.7170     3.0490     1.1690 ns         1 FVK      -0.237900
     14 C7          -2.8430     5.1550     1.6950 c3         1 FVK       0.128800
     15 N3          -3.7570     6.1760     1.1650 n7         1 FVK      -0.559200
     16 C8          -3.9880     7.2390     2.1530 c3         1 FVK       0.130800
     17 C9          -4.9420     8.2820     1.5660 c3         1 FVK       0.188100
     18 C10         -5.1830     9.3880     2.5950 c3         1 FVK       0.178400
     19 C11         -6.4940    11.3500     2.8910 ca         1 FVK       0.139100
     20 C12         -5.8840    11.5020     4.1270 ca         1 FVK      -0.157000
     21 C13         -6.2220    12.5680     4.9370 ca         1 FVK      -0.094500
     22 C14         -7.1690    13.4880     4.5150 ca         1 FVK       0.081100
     23 C15         -7.7780    13.3380     3.2770 ca         1 FVK      -0.094500
     24 C16         -7.4380    12.2730     2.4650 ca         1 FVK      -0.157000
     25 H1          -0.3640    -0.9410     0.3940 h1         1 FVK       0.033700
     26 H2          -0.3640     0.1440    -1.0100 h1         1 FVK       0.033700
     27 H3          -3.5790     3.6100     0.3940 h1         1 FVK       0.031700
     28 H4          -2.1990     4.5090    -0.2510 h1         1 FVK       0.031700
     29 H5           1.8940    -0.8860    -0.5080 h1         1 FVK       0.014950
     30 H6           1.8940     0.8860    -0.5080 h1         1 FVK       0.014950
     31 H7          -0.1950     2.1600     2.6490 h1         1 FVK       0.033700
     32 H8          -0.2520     0.3950     2.8190 h1         1 FVK       0.033700
     33 H9           2.0580     1.0980     3.0940 h1         1 FVK       0.014950
     34 H10          1.9900     2.0460     1.5970 h1         1 FVK       0.014950
     35 H11         -4.9910     8.8100    -0.3180 ho         1 FVK       0.395000
     36 H12         -8.2190    14.2940     5.8710 ho         1 FVK       0.398000
     37 H13         -1.3760     3.1210     2.1070 hn         1 FVK       0.177500
     38 H14         -1.8930     5.6130     1.9400 h1         1 FVK       0.005700
     39 H15         -3.2730     4.7140     2.5860 h1         1 FVK       0.005700
     40 H16         -4.6300     5.7500     0.9230 hn         1 FVK       0.251800
     41 H18         -3.0460     7.7120     2.4020 h1         1 FVK       0.014200
     42 H19         -4.4260     6.8120     3.0470 h1         1 FVK       0.014200
     43 H20         -5.8840     7.8090     1.3170 h1         1 FVK       0.005700
     44 H21         -5.5380     8.9500     3.5200 h1         1 FVK       0.010700
     45 H22         -4.2570     9.9180     2.7790 h1         1 FVK       0.010700
     46 H23         -5.1440    10.7830     4.4580 ha         1 FVK       0.117500
     47 H24         -5.7460    12.6860     5.9030 ha         1 FVK       0.112500
     48 H25         -8.5150    14.0580     2.9440 ha         1 FVK       0.112500
     49 H26         -7.9130    12.1550     1.4990 ha         1 FVK       0.117500
@<TRIPOS>BOND
     1     1     4 1   
     2     1    12 1   
     3     1    25 1   
     4     1    26 1   
     5     2     7 2   
     6     2    12 1   
     7     2    13 1   
     8     3    13 1   
     9     3    14 1   
    10     3    27 1   
    11     3    28 1   
    12     4    11 1   
    13     4    29 1   
    14     4    30 1   
    15     5     6 1   
    16     5    12 1   
    17     5    31 1   
    18     5    32 1   
    19     6    11 1   
    20     6    33 1   
    21     6    34 1   
    22     8    17 1   
    23     8    35 1   
    24     9    22 1   
    25     9    36 1   
    26    10    18 1   
    27    10    19 1   
    28    13    37 1   
    29    14    15 1   
    30    14    38 1   
    31    14    39 1   
    32    15    16 1   
    33    15    40 1   
    34    16    17 1   
    35    16    41 1   
    36    16    42 1   
    37    17    18 1   
    38    17    43 1   
    39    18    44 1   
    40    18    45 1   
    41    19    20 ar  
    42    19    24 ar  
    43    20    21 ar  
    44    20    46 1   
    45    21    22 ar  
    46    21    47 1   
    47    22    23 ar  
    48    23    24 ar  
    49    23    48 1   
    50    24    49 1   
@<TRIPOS>SUBSTRUCTURE
     1 FVK         1 TEMP              0 ****  ****    0 ROOT
