@<TRIPOS>MOLECULE
FVM
   62    67     1     0     0
SMALL
bcc


@<TRIPOS>ATOM
      1 N1           0.0000     0.0000     0.0000 nc         1 FVM      -0.550100
      2 N3          -4.6290     0.6690    -0.2550 na         1 FVM       0.454400
      3 C4           3.1770     0.0020     1.7030 c3         1 FVM       0.029600
      4 C5           1.3100     0.0000     0.0000 cd         1 FVM       0.311700
      5 C6          -0.4560    -0.0010     1.2790 ca         1 FVM       0.084400
      6 C7          -1.7430    -0.0010     1.8450 ca         1 FVM       0.092000
      7 C8          -1.8850    -0.0010     3.2260 ca         1 FVM      -0.116000
      8 C10          0.5030     0.0000     3.4980 ca         1 FVM      -0.095000
      9 C13         -3.6160    -1.1370     0.4820 cc         1 FVM       0.391600
     10 C15         -3.5950     1.1000     0.4970 cd         1 FVM      -0.231600
     11 C17          1.2800     0.0000    -2.3550 cy         1 FVM       0.154300
     12 C20          1.8160    -2.0740    -3.9450 cy         1 FVM       0.153800
     13 C21          2.5340    -1.3700    -1.4730 cy         1 FVM       0.154300
     14 C22          4.2190     2.0740     0.7650 ca         1 FVM      -0.063000
     15 N            1.7730     0.0000     1.2860 na         1 FVM       0.319700
     16 C1           3.9770     3.3760     3.1930 ca         1 FVM      -0.112300
     17 C11          0.6670    -0.0000     2.1190 ca         1 FVM      -0.247200
     18 C12         -2.9430    -0.0010     0.9720 cc         1 FVM      -0.267300
     19 C16         -3.2270     2.5370     0.7650 c3         1 FVM       0.097200
     20 C18          2.2510    -1.0220    -2.9290 cy         1 FVM      -0.148000
     21 C19          3.3610    -0.6310    -3.9010 cy         1 FVM       0.153800
     22 C2           3.5360     2.0720     3.0610 ca         1 FVM      -0.063000
     23 C23          4.6550     3.3790     0.8940 ca         1 FVM      -0.112300
     24 C25          4.5330     4.0320     2.1090 ca         1 FVM       0.113900
     25 C3           3.6570     1.4230     1.8470 ca         1 FVM      -0.139300
     26 C9          -0.7660    -0.0000     4.0440 ca         1 FVM      -0.022600
     27 N2          -4.6210    -0.7300    -0.2480 nd         1 FVM      -0.672800
     28 N4           2.1040     0.0010    -1.1290 nn         1 FVM      -0.448600
     29 N5           3.2050    -1.9970    -4.4550 n6         1 FVM      -0.581200
     30 Cl          -0.9600     0.0010     5.7690 cl         1 FVM      -0.032400
     31 H1          -5.2880     1.2500    -0.7340 hn         1 FVM       0.145700
     32 H2           3.2710    -0.5090     2.6540 h1         1 FVM       0.040200
     33 H3           3.7760    -0.5090     0.9590 h1         1 FVM       0.040200
     34 H4          -2.8740    -0.0010     3.6670 ha         1 FVM       0.123000
     35 H5           1.3700     0.0000     4.1460 ha         1 FVM       0.112000
     36 H6           0.2870    -0.4020    -2.1970 h1         1 FVM       0.043700
     37 H7           1.3040     0.9470    -2.8800 h1         1 FVM       0.043700
     38 H8           1.0810    -1.7070    -4.6510 h1         1 FVM       0.028700
     39 H9           1.5790    -3.0310    -3.4940 h1         1 FVM       0.028700
     40 H10          3.5860    -1.5450    -1.2780 h1         1 FVM       0.043700
     41 H11          1.8710    -2.1330    -1.0840 h1         1 FVM       0.043700
     42 H12          4.3660     1.5450    -0.1690 ha         1 FVM       0.119500
     43 H13          6.1290     4.6540     0.0350 hc         1 FVM       0.013700
     44 H14          5.5580     3.3660    -1.0340 hc         1 FVM       0.013700
     45 H15          4.5300     4.7690    -0.7140 hc         1 FVM       0.013700
     46 H16          3.0880     4.8590     4.4380 hc         1 FVM       0.013700
     47 H17          4.7930     4.5350     4.7840 hc         1 FVM       0.013700
     48 H18          3.5540     3.3740     5.2810 hc         1 FVM       0.013700
     49 H19         -3.2860    -2.7610     1.8190 hc         1 FVM       0.011367
     50 H20         -3.9380    -3.2280     0.2420 hc         1 FVM       0.011367
     51 H21         -2.2390    -2.7580     0.3930 hc         1 FVM       0.011367
     52 H22         -3.9850     3.1880     0.3460 hc         1 FVM       0.012367
     53 H23         -3.1620     2.7000     1.8340 hc         1 FVM       0.012367
     54 H24         -2.2700     2.7560     0.3070 hc         1 FVM       0.012367
     55 H25          4.3170    -0.4740    -3.4160 h1         1 FVM       0.028700
     56 H26          3.0670     0.1470    -4.5950 h1         1 FVM       0.028700
     57 H27          3.1470     1.5420     3.9220 ha         1 FVM       0.119500
     58 H28          3.1910    -1.9530    -5.4540 hn         1 FVM       0.245800
     59 C14         -3.2440    -2.5720     0.7530 c3         1 FVM      -0.006400
     60 F            4.9590     5.3080     2.2370 f          1 FVM      -0.125900
     61 C24          5.2610     4.0920    -0.2880 c3         1 FVM       0.066700
     62 C            3.8430     4.0860     4.5170 c3         1 FVM       0.066700
@<TRIPOS>BOND
     1     1     4 2   
     2     1     5 1   
     3     2    10 1   
     4     2    27 1   
     5     2    31 1   
     6     3    15 1   
     7     3    25 1   
     8     3    32 1   
     9     3    33 1   
    10     4    15 1   
    11     4    28 1   
    12     5     6 ar  
    13     5    17 ar  
    14     6     7 ar  
    15     6    18 1   
    16     7    26 ar  
    17     7    34 1   
    18     8    17 ar  
    19     8    26 ar  
    20     8    35 1   
    21     9    18 1   
    22     9    27 2   
    23     9    59 1   
    24    10    18 2   
    25    10    19 1   
    26    11    20 1   
    27    11    28 1   
    28    11    36 1   
    29    11    37 1   
    30    12    20 1   
    31    12    29 1   
    32    12    38 1   
    33    12    39 1   
    34    13    20 1   
    35    13    28 1   
    36    13    40 1   
    37    13    41 1   
    38    14    23 ar  
    39    14    25 ar  
    40    14    42 1   
    41    15    17 1   
    42    16    22 ar  
    43    16    24 ar  
    44    16    62 1   
    45    19    52 1   
    46    19    53 1   
    47    19    54 1   
    48    20    21 1   
    49    21    29 1   
    50    21    55 1   
    51    21    56 1   
    52    22    25 ar  
    53    22    57 1   
    54    23    24 ar  
    55    23    61 1   
    56    24    60 1   
    57    26    30 1   
    58    29    58 1   
    59    43    61 1   
    60    44    61 1   
    61    45    61 1   
    62    46    62 1   
    63    47    62 1   
    64    48    62 1   
    65    49    59 1   
    66    50    59 1   
    67    51    59 1   
@<TRIPOS>SUBSTRUCTURE
     1 FVM         1 TEMP              0 ****  ****    0 ROOT
