@<TRIPOS>MOLECULE
molecule
   62    67     1     0     0
SMALL
bcc


@<TRIPOS>ATOM
      1 N1           0.0000     0.0000     0.0000 nc         1 FVM      -0.631100
      2 N3          -4.6290     0.6690    -0.2550 na         1 FVM      -0.041600
      3 C4           3.1770     0.0020     1.7030 c3         1 FVM       0.106600
      4 C5           1.3100     0.0000     0.0000 cd         1 FVM       0.558700
      5 C6          -0.4560    -0.0010     1.2790 ca         1 FVM       0.114400
      6 C7          -1.7430    -0.0010     1.8450 ca         1 FVM       0.066000
      7 C8          -1.8850    -0.0010     3.2260 ca         1 FVM      -0.131000
      8 C10          0.5030     0.0000     3.4980 ca         1 FVM      -0.124000
      9 C13         -3.6160    -1.1370     0.4820 cd         1 FVM       0.367600
     10 C15         -3.5950     1.1000     0.4970 cc         1 FVM      -0.045600
     11 C17          1.2800     0.0000    -2.3550 cy         1 FVM       0.146800
     12 C20          1.8160    -2.0740    -3.9450 cy         1 FVM       0.132800
     13 C21          2.5340    -1.3700    -1.4730 cy         1 FVM       0.146800
     14 C22          4.2190     2.0740     0.7650 ca         1 FVM      -0.085000
     15 N            1.7730     0.0000     1.2860 na         1 FVM      -0.143300
     16 C1           3.9770     3.3760     3.1930 ca         1 FVM      -0.117800
     17 C11          0.6670    -0.0000     2.1190 ca         1 FVM      -0.081200
     18 C12         -2.9430    -0.0010     0.9720 cd         1 FVM      -0.263300
     19 C16         -3.2270     2.5370     0.7650 c3         1 FVM      -0.029800
     20 C18          2.2510    -1.0220    -2.9290 cy         1 FVM      -0.136000
     21 C19          3.3610    -0.6310    -3.9010 cy         1 FVM       0.132800
     22 C2           3.5360     2.0720     3.0610 ca         1 FVM      -0.085000
     23 C23          4.6550     3.3790     0.8940 ca         1 FVM      -0.117800
     24 C25          4.5330     4.0320     2.1090 ca         1 FVM       0.139900
     25 C3           3.6570     1.4230     1.8470 ca         1 FVM      -0.131300
     26 C9          -0.7660    -0.0000     4.0440 ca         1 FVM       0.036400
     27 N2          -4.6210    -0.7300    -0.2480 nc         1 FVM      -0.520800
     28 N4           2.1040     0.0010    -1.1290 nn         1 FVM      -0.603600
     29 N5           3.2050    -1.9970    -4.4550 n6         1 FVM      -0.758200
     30 Cl          -0.9600     0.0010     5.7690 cl         1 FVM      -0.109400
     31 H1          -5.2880     1.2500    -0.7340 hn         1 FVM       0.328700
     32 H2           3.2710    -0.5090     2.6540 h1         1 FVM       0.068700
     33 H3           3.7760    -0.5090     0.9590 h1         1 FVM       0.068700
     34 H4          -2.8740    -0.0010     3.6670 ha         1 FVM       0.153000
     35 H5           1.3700     0.0000     4.1460 ha         1 FVM       0.136000
     36 H6           0.2870    -0.4020    -2.1970 h1         1 FVM       0.078450
     37 H7           1.3040     0.9470    -2.8800 h1         1 FVM       0.078450
     38 H8           1.0810    -1.7070    -4.6510 h1         1 FVM       0.062450
     39 H9           1.5790    -3.0310    -3.4940 h1         1 FVM       0.062450
     40 H10          3.5860    -1.5450    -1.2780 h1         1 FVM       0.078450
     41 H11          1.8710    -2.1330    -1.0840 h1         1 FVM       0.078450
     42 H12          4.3660     1.5450    -0.1690 ha         1 FVM       0.143000
     43 H13          6.1290     4.6540     0.0350 hc         1 FVM       0.048867
     44 H14          5.5580     3.3660    -1.0340 hc         1 FVM       0.048867
     45 H15          4.5300     4.7690    -0.7140 hc         1 FVM       0.048867
     46 H16          3.0880     4.8590     4.4380 hc         1 FVM       0.048867
     47 H17          4.7930     4.5350     4.7840 hc         1 FVM       0.048867
     48 H18          3.5540     3.3740     5.2810 hc         1 FVM       0.048867
     49 H19         -3.2860    -2.7610     1.8190 hc         1 FVM       0.051033
     50 H20         -3.9380    -3.2280     0.2420 hc         1 FVM       0.051033
     51 H21         -2.2390    -2.7580     0.3930 hc         1 FVM       0.051033
     52 H22         -3.9850     3.1880     0.3460 hc         1 FVM       0.054033
     53 H23         -3.1620     2.7000     1.8340 hc         1 FVM       0.054033
     54 H24         -2.2700     2.7560     0.3070 hc         1 FVM       0.054033
     55 H25          4.3170    -0.4740    -3.4160 h1         1 FVM       0.062450
     56 H26          3.0670     0.1470    -4.5950 h1         1 FVM       0.062450
     57 H27          3.1470     1.5420     3.9220 ha         1 FVM       0.143000
     58 H28          3.1910    -1.9530    -5.4540 hn         1 FVM       0.329800
     59 C14         -3.2440    -2.5720     0.7530 c3         1 FVM      -0.110400
     60 F            4.9590     5.3080     2.2370 f          1 FVM      -0.137900
     61 C24          5.2610     4.0920    -0.2880 c3         1 FVM      -0.043800
     62 C            3.8430     4.0860     4.5170 c3         1 FVM      -0.043800
@<TRIPOS>BOND
     1    62    16 1
     2    29    21 1
     3    29    12 1
     4    21    20 1
     5    60    24 1
     6    16    24 ar
     7    16    22 ar
     8    24    23 ar
     9    12    20 1
    10    20    11 1
    11    20    13 1
    12    22    25 ar
    13    11    28 1
    14    23    61 1
    15    23    14 ar
    16    25    14 ar
    17    25     3 1
    18    13    28 1
    19    28     4 1
    20     3    15 1
    21     4    15 1
    22     4     1 2
    23    15    17 1
    24     1     5 1
    25    17     5 ar
    26    17     8 ar
    27    19    10 1
    28     5     6 ar
    29     8    26 ar
    30    10     2 1
    31    10    18 2
    32     6    18 1
    33     6     7 ar
    34     2    27 1
    35    18     9 1
    36    26     7 ar
    37    26    30 1
    38    27     9 2
    39     9    59 1
    40     2    31 1
    41     3    32 1
    42     3    33 1
    43     7    34 1
    44     8    35 1
    45    11    36 1
    46    11    37 1
    47    12    38 1
    48    12    39 1
    49    13    40 1
    50    13    41 1
    51    14    42 1
    52    61    43 1
    53    61    44 1
    54    61    45 1
    55    62    46 1
    56    62    47 1
    57    62    48 1
    58    59    49 1
    59    59    50 1
    60    59    51 1
    61    19    52 1
    62    19    53 1
    63    19    54 1
    64    21    55 1
    65    21    56 1
    66    22    57 1
    67    29    58 1
@<TRIPOS>SUBSTRUCTURE
     1 FVM         1 TEMP              0 ****  ****    0 ROOT
