@<TRIPOS>MOLECULE
molecule
   49    50     1     0     0
SMALL
bcc


@<TRIPOS>ATOM
      1 C1           0.0000     0.0000     0.0000 c3         1 FVN      -0.129100
      2 C2           1.5310     0.0000     0.0000 c3         1 FVN       0.165500
      3 C3           2.0400     1.2500    -0.7220 c3         1 FVN      -0.020100
      4 C4           3.5420     1.1900    -0.8300 ca         1 FVN      -0.109300
      5 C5           4.3290     1.7230     0.1740 ca         1 FVN      -0.079500
      6 C6           5.7060     1.6700     0.0760 ca         1 FVN      -0.192000
      7 C7           6.2990     1.0790    -1.0290 ca         1 FVN       0.136100
      8 C8           5.5080     0.5440    -2.0360 ca         1 FVN      -0.192000
      9 C9           4.1310     0.5960    -1.9310 ca         1 FVN      -0.079500
     10 O1           7.6530     1.0260    -1.1270 os         1 FVN      -0.330900
     11 C10          8.1950     0.4030    -2.2940 c3         1 FVN       0.129700
     12 N1           2.0200     0.0000     1.3850 n7         1 FVN      -0.817200
     13 C11          2.0840    -1.3660     1.9200 c3         1 FVN       0.158800
     14 C12          2.5970    -1.3260     3.3610 c3         1 FVN       0.194400
     15 C13          2.7780    -2.7330     3.8690 ca         1 FVN      -0.111300
     16 C14          4.0380    -3.3020     3.8890 ca         1 FVN      -0.115000
     17 C15          4.2060    -4.5960     4.3570 ca         1 FVN       0.036600
     18 C16          3.1040    -5.3200     4.8060 ca         1 FVN       0.076100
     19 C17          1.8450    -4.7420     4.7830 ca         1 FVN      -0.165000
     20 C18          1.6850    -3.4490     4.3200 ca         1 FVN      -0.100000
     21 O2           3.2630    -6.5890     5.2650 oh         1 FVN      -0.526100
     22 N2           5.4820    -5.1760     4.3770 ns         1 FVN      -0.477100
     23 C19          6.5770    -4.3920     4.4360 c          1 FVN       0.656900
     24 O3           6.4580    -3.1930     4.5710 o          1 FVN      -0.602100
     25 O4           1.6520    -0.6400     4.1840 oh         1 FVN      -0.612800
     26 H1          -0.3610     0.7770     0.6630 hc         1 FVN       0.038700
     27 H2          -0.3610    -0.9620     0.3420 hc         1 FVN       0.038700
     28 H3          -0.3610     0.1850    -1.0040 hc         1 FVN       0.038700
     29 H4           1.8920    -0.8850    -0.5110 h1         1 FVN       0.061700
     30 H5           1.7530     2.1320    -0.1630 hc         1 FVN       0.047700
     31 H6           1.6080     1.2950    -1.7150 hc         1 FVN       0.047700
     32 H7           3.8650     2.1850     1.0370 ha         1 FVN       0.132500
     33 H8           6.3210     2.0880     0.8630 ha         1 FVN       0.136500
     34 H9           5.9690     0.0800    -2.8990 ha         1 FVN       0.136500
     35 H10          3.5120     0.1780    -2.7160 ha         1 FVN       0.132500
     36 H11          7.8590     0.9340    -3.1760 h1         1 FVN       0.039367
     37 H12          9.2770     0.4290    -2.2480 h1         1 FVN       0.039367
     38 H13          7.8610    -0.6260    -2.3430 h1         1 FVN       0.039367
     39 H14          1.4110     0.5540     1.9540 hn         1 FVN       0.361800
     40 H16          2.7570    -1.9600     1.3140 h1         1 FVN       0.044700
     41 H17          1.0950    -1.8080     1.9010 h1         1 FVN       0.044700
     42 H18          3.5470    -0.8060     3.3920 h1         1 FVN       0.060700
     43 H19          4.8930    -2.7370     3.5390 ha         1 FVN       0.178000
     44 H20          0.9860    -5.3010     5.1340 ha         1 FVN       0.138000
     45 H21          0.7000    -2.9990     4.3030 ha         1 FVN       0.147000
     46 H22          2.9930    -6.6340     6.1670 ho         1 FVN       0.423000
     47 H23          5.5810    -6.1700     4.3210 hn         1 FVN       0.336500
     48 H24          7.5640    -4.8350     4.3810 h5         1 FVN       0.032200
     49 H25          2.1060    -0.0340     4.7460 ho         1 FVN       0.409000
@<TRIPOS>BOND
     1    21    18 1
     2    24    23 2
     3    22    23 1
     4    22    17 1
     5    18    17 ar
     6    18    19 ar
     7    17    16 ar
     8    19    20 ar
     9    16    15 ar
    10    20    15 ar
    11    15    14 1
    12    14    25 1
    13    14    13 1
    14    13    12 1
    15    12     2 1
    16     1     2 1
    17     2     3 1
    18     5     6 ar
    19     5     4 ar
    20     3     4 1
    21    11    10 1
    22     6     7 ar
    23     4     9 ar
    24     7    10 1
    25     7     8 ar
    26     9     8 ar
    27     1    26 1
    28     1    27 1
    29     1    28 1
    30     2    29 1
    31     3    30 1
    32     3    31 1
    33     5    32 1
    34     6    33 1
    35     8    34 1
    36     9    35 1
    37    11    36 1
    38    11    37 1
    39    11    38 1
    40    12    39 1
    41    13    40 1
    42    13    41 1
    43    14    42 1
    44    16    43 1
    45    19    44 1
    46    20    45 1
    47    21    46 1
    48    22    47 1
    49    23    48 1
    50    25    49 1
@<TRIPOS>SUBSTRUCTURE
     1 FVN         1 TEMP              0 ****  ****    0 ROOT
