@<TRIPOS>MOLECULE
FVN
   49    50     1     0     0
SMALL
bcc


@<TRIPOS>ATOM
      1 C1           0.0000     0.0000     0.0000 c3         1 FVN      -0.031100
      2 C2           1.5310     0.0000     0.0000 c3         1 FVN       0.116500
      3 C3           2.0400     1.2500    -0.7220 c3         1 FVN       0.042900
      4 C4           3.5420     1.1900    -0.8300 ca         1 FVN      -0.123300
      5 C5           4.3290     1.7230     0.1740 ca         1 FVN      -0.049500
      6 C6           5.7060     1.6700     0.0760 ca         1 FVN      -0.178000
      7 C7           6.2990     1.0790    -1.0290 ca         1 FVN       0.145100
      8 C8           5.5080     0.5440    -2.0360 ca         1 FVN      -0.178000
      9 C9           4.1310     0.5960    -1.9310 ca         1 FVN      -0.049500
     10 O1           7.6530     1.0260    -1.1270 os         1 FVN      -0.308900
     11 C10          8.1950     0.4030    -2.2940 c3         1 FVN       0.244700
     12 N1           2.0200     0.0000     1.3850 n7         1 FVN      -0.588200
     13 C11          2.0840    -1.3660     1.9200 c3         1 FVN       0.130800
     14 C12          2.5970    -1.3260     3.3610 c3         1 FVN       0.247400
     15 C13          2.7780    -2.7330     3.8690 ca         1 FVN      -0.127300
     16 C14          4.0380    -3.3020     3.8890 ca         1 FVN      -0.088000
     17 C15          4.2060    -4.5960     4.3570 ca         1 FVN      -0.117400
     18 C16          3.1040    -5.3200     4.8060 ca         1 FVN       0.097100
     19 C17          1.8450    -4.7420     4.7830 ca         1 FVN      -0.149000
     20 C18          1.6850    -3.4490     4.3200 ca         1 FVN      -0.063000
     21 O2           3.2630    -6.5890     5.2650 oh         1 FVN      -0.504100
     22 N2           5.4820    -5.1760     4.3770 ns         1 FVN      -0.043100
     23 C19          6.5770    -4.3920     4.4360 c          1 FVN       0.600900
     24 O3           6.4580    -3.1930     4.5710 o          1 FVN      -0.643100
     25 O4           1.6520    -0.6400     4.1840 oh         1 FVN      -0.594800
     26 H1          -0.3610     0.7770     0.6630 hc         1 FVN       0.009033
     27 H2          -0.3610    -0.9620     0.3420 hc         1 FVN       0.009033
     28 H3          -0.3610     0.1850    -1.0040 hc         1 FVN       0.009033
     29 H4           1.8920    -0.8850    -0.5110 h1         1 FVN       0.036700
     30 H5           1.7530     2.1320    -0.1630 hc         1 FVN       0.018200
     31 H6           1.6080     1.2950    -1.7150 hc         1 FVN       0.018200
     32 H7           3.8650     2.1850     1.0370 ha         1 FVN       0.104500
     33 H8           6.3210     2.0880     0.8630 ha         1 FVN       0.116500
     34 H9           5.9690     0.0800    -2.8990 ha         1 FVN       0.116500
     35 H10          3.5120     0.1780    -2.7160 ha         1 FVN       0.104500
     36 H11          7.8590     0.9340    -3.1760 h1         1 FVN      -0.004300
     37 H12          9.2770     0.4290    -2.2480 h1         1 FVN      -0.004300
     38 H13          7.8610    -0.6260    -2.3430 h1         1 FVN      -0.004300
     39 H14          1.4110     0.5540     1.9540 hn         1 FVN       0.265800
     40 H16          2.7570    -1.9600     1.3140 h1         1 FVN       0.018700
     41 H17          1.0950    -1.8080     1.9010 h1         1 FVN       0.018700
     42 H18          3.5470    -0.8060     3.3920 h1         1 FVN       0.022700
     43 H19          4.8930    -2.7370     3.5390 ha         1 FVN       0.160000
     44 H20          0.9860    -5.3010     5.1340 ha         1 FVN       0.112000
     45 H21          0.7000    -2.9990     4.3030 ha         1 FVN       0.118000
     46 H22          2.9930    -6.6340     6.1670 ho         1 FVN       0.407000
     47 H23          5.5810    -6.1700     4.3210 hn         1 FVN       0.179500
     48 H24          7.5640    -4.8350     4.3810 h5         1 FVN      -0.017800
     49 H25          2.1060    -0.0340     4.7460 ho         1 FVN       0.396000
@<TRIPOS>BOND
     1     1     2 1   
     2     1    26 1   
     3     1    27 1   
     4     1    28 1   
     5     2     3 1   
     6     2    12 1   
     7     2    29 1   
     8     3     4 1   
     9     3    30 1   
    10     3    31 1   
    11     4     5 ar  
    12     4     9 ar  
    13     5     6 ar  
    14     5    32 1   
    15     6     7 ar  
    16     6    33 1   
    17     7     8 ar  
    18     7    10 1   
    19     8     9 ar  
    20     8    34 1   
    21     9    35 1   
    22    10    11 1   
    23    11    36 1   
    24    11    37 1   
    25    11    38 1   
    26    12    13 1   
    27    12    39 1   
    28    13    14 1   
    29    13    40 1   
    30    13    41 1   
    31    14    15 1   
    32    14    25 1   
    33    14    42 1   
    34    15    16 ar  
    35    15    20 ar  
    36    16    17 ar  
    37    16    43 1   
    38    17    18 ar  
    39    17    22 1   
    40    18    19 ar  
    41    18    21 1   
    42    19    20 ar  
    43    19    44 1   
    44    20    45 1   
    45    21    46 1   
    46    22    23 1   
    47    22    47 1   
    48    23    24 2   
    49    23    48 1   
    50    25    49 1   
@<TRIPOS>SUBSTRUCTURE
     1 FVN         1 TEMP              0 ****  ****    0 ROOT
