@<TRIPOS>MOLECULE
molecule
   38    39     1     0     0
SMALL
bcc


@<TRIPOS>ATOM
      1 O6           0.0000     0.0000     0.0000 oh         1 FVQ      -0.649800
      2 C6           1.4290     0.0000     0.0000 c3         1 FVQ       0.197400
      3 C5           1.9390     0.0000     1.4430 c3         1 FVQ       0.121100
      4 O5           1.5610    -1.2200     2.0820 os         1 FVQ      -0.396600
      5 C4           3.4660     0.1240     1.4450 c3         1 FVQ       0.120100
      6 O4           3.8430     1.3710     0.8580 oh         1 FVQ      -0.637800
      7 C3           3.9730     0.0640     2.8890 c3         1 FVQ       0.121100
      8 O3           5.4010     0.1050     2.8960 oh         1 FVQ      -0.632800
      9 C2           3.4950    -1.2420     3.5310 c3         1 FVQ       0.123100
     10 O2           4.0630    -2.3530     2.8360 oh         1 FVQ      -0.575800
     11 C1           1.9680    -1.3140     3.4490 c3         1 FVQ       0.340900
     12 O1           1.3990    -0.2330     4.1900 os         1 FVQ      -0.404600
     13 C7          -0.0160    -0.3290     4.3670 c3         1 FVQ       0.043500
     14 C8          -0.4940     0.8290     5.1390 c1         1 FVQ      -0.075100
     15 C9          -0.8870     1.7400     5.7660 cg         1 FVQ      -0.194000
     16 C10         -0.9420     2.9660     6.7790 ca         1 FVQ       0.018700
     17 C15         -0.8480     4.0150     6.2090 ca         1 FVQ      -0.063000
     18 C14         -0.8670     5.1940     6.8380 ca         1 FVQ      -0.226300
     19 C13         -1.3760     5.4950     7.8950 ca         1 FVQ       0.364200
     20 N12         -2.1010     4.0870     8.4710 nb         1 FVQ      -0.681000
     21 C11         -1.0650     2.8750     8.0120 ca         1 FVQ       0.377200
     22 H6          -0.5260     0.6340    -0.4590 ho         1 FVQ       0.430000
     23 H61C         2.0310    -0.7700    -0.4680 h1         1 FVQ       0.039200
     24 H62C         1.6580     0.9590    -0.4490 h1         1 FVQ       0.039200
     25 H5           1.5110     0.8360     1.9820 h1         1 FVQ       0.069700
     26 H4           3.8940    -0.6930     0.8780 h1         1 FVQ       0.065700
     27 H1           1.6300    -2.2570     3.8600 h2         1 FVQ       0.086700
     28 HA           4.5440     1.3630     0.2270 ho         1 FVQ       0.421000
     29 H3           3.5780     0.9050     3.4460 h1         1 FVQ       0.064700
     30 HB           5.7870     0.9280     3.1460 ho         1 FVQ       0.420000
     31 H2           3.8000    -1.2650     4.5700 h1         1 FVQ       0.052700
     32 HC           4.9000    -2.5080     3.2420 ho         1 FVQ       0.414000
     33 H71C        -0.1620    -0.0820     5.4110 h1         1 FVQ       0.131200
     34 H72C        -0.6800    -1.1670     4.1970 h1         1 FVQ       0.131200
     35 H15         -0.2900     4.1970     5.2980 ha         1 FVQ       0.148000
     36 H11         -1.1690     2.0200     8.6690 h4         1 FVQ       0.025100
     37 H14         -0.7650     6.1250     6.2940 ha         1 FVQ       0.117000
     38 H13         -1.7170     6.2420     8.6010 h4         1 FVQ       0.056100
@<TRIPOS>BOND
     1     1     2 1
     2     2     3 1
     3     3     4 1
     4     3     5 1
     5     4    11 1
     6     5     6 1
     7     5     7 1
     8     7     8 1
     9     7     9 1
    10     9    10 1
    11     9    11 1
    12    11    12 1
    13    12    13 1
    14    13    14 1
    15    14    15 3
    16    15    16 1
    17    16    17 ar
    18    16    21 ar
    19    17    18 ar
    20    18    19 ar
    21    19    20 ar
    22    21    20 ar
    23     1    22 1
    24     2    23 1
    25     2    24 1
    26     3    25 1
    27     5    26 1
    28    11    27 1
    29     6    28 1
    30     7    29 1
    31     8    30 1
    32     9    31 1
    33    10    32 1
    34    13    33 1
    35    13    34 1
    36    17    35 1
    37    21    36 1
    38    18    37 1
    39    19    38 1
@<TRIPOS>SUBSTRUCTURE
     1 FVQ         1 TEMP              0 ****  ****    0 ROOT
