@<TRIPOS>MOLECULE
FVQ
   38    39     1     0     0
SMALL
bcc


@<TRIPOS>ATOM
      1 O6         -0.3860   -0.4710    0.4770 oh        1 FVQ     -0.593800
      2 C6          0.9830   -0.2190    0.2450 c3        1 FVQ      0.140400
      3 C5          1.7320    0.0260    1.5560 c3        1 FVQ      0.100100
      4 O5          1.6740   -1.2130    2.2750 os        1 FVQ     -0.461600
      5 C4          3.1950    0.4120    1.3020 c3        1 FVQ      0.091100
      6 O4          3.1950    1.6490    0.6130 oh        1 FVQ     -0.590800
      7 C3          3.9360    0.5260    2.6470 c3        1 FVQ      0.074100
      8 O3          5.2910    0.8520    2.4150 oh        1 FVQ     -0.592800
      9 C2          3.7900   -0.7690    3.4560 c3        1 FVQ      0.096100
     10 O2          4.5690   -1.8060    2.8920 oh        1 FVQ     -0.590800
     11 C1          2.3140   -1.2030    3.5350 c3        1 FVQ      0.300900
     12 O1          1.6370   -0.2670    4.3470 os        1 FVQ     -0.433600
     13 C7          0.3140   -0.6950    4.7150 c3        1 FVQ      0.219500
     14 C8         -0.2940    0.3490    5.4890 c1        1 FVQ     -0.122100
     15 C9         -0.8180    1.2120    6.1350 cg        1 FVQ     -0.081000
     16 C10        -1.4450    2.2130    6.8910 ca        1 FVQ     -0.098300
     17 C15        -2.0970    3.2950    6.2740 ca        1 FVQ     -0.066000
     18 C14        -2.7020    4.2630    7.0740 ca        1 FVQ     -0.249300
     19 C13        -2.6360    4.1200    8.4720 ca        1 FVQ      0.404200
     20 N12        -2.0160    3.0920    9.0850 nb        1 FVQ     -0.666000
     21 C11        -1.4350    2.1630    8.3080 ca        1 FVQ      0.421200
     22 H6         -0.4370   -1.2500    1.0460 ho        1 FVQ      0.406000
     23 H61C        1.0180    0.7170   -0.3760 h1        1 FVQ      0.063700
     24 H62C        1.4500   -1.0740   -0.3120 h1        1 FVQ      0.063700
     25 H5          1.2200    0.8260    2.1590 h1        1 FVQ      0.087700
     26 H4          3.6960   -0.3650    0.6580 h1        1 FVQ      0.039700
     27 H1          2.2170   -2.2610    3.9120 h2        1 FVQ      0.090700
     28 HA          4.0800    2.0260    0.7230 ho        1 FVQ      0.425000
     29 H3          3.5200    1.3910    3.2370 h1        1 FVQ      0.111700
     30 HB          5.7550    0.0330    2.1890 ho        1 FVQ      0.417000
     31 H2          4.2070   -0.6250    4.4920 h1        1 FVQ      0.113700
     32 HC          4.1420   -2.0740    2.0670 ho        1 FVQ      0.411000
     33 H71C       -0.2780   -0.8920    3.7760 h1        1 FVQ      0.059200
     34 H72C        0.3930   -1.6420    5.3200 h1        1 FVQ      0.059200
     35 H15        -2.1260    3.3720    5.1770 ha        1 FVQ      0.149000
     36 H11        -0.9320    1.3330    8.8360 h4        1 FVQ      0.030100
     37 H14        -3.2200    5.1210    6.6270 ha        1 FVQ      0.148000
     38 H13        -3.1030    4.8650    9.1410 h4        1 FVQ      0.025100
@<TRIPOS>BOND
     1    1    2 1   
     2    1   22 1   
     3    2    3 1   
     4    2   23 1   
     5    2   24 1   
     6    3    4 1   
     7    3    5 1   
     8    3   25 1   
     9    4   11 1   
    10    5    6 1   
    11    5    7 1   
    12    5   26 1   
    13    6   28 1   
    14    7    8 1   
    15    7    9 1   
    16    7   29 1   
    17    8   30 1   
    18    9   10 1   
    19    9   11 1   
    20    9   31 1   
    21   10   32 1   
    22   11   12 1   
    23   11   27 1   
    24   12   13 1   
    25   13   14 1   
    26   13   33 1   
    27   13   34 1   
    28   14   15 3   
    29   15   16 1   
    30   16   17 ar  
    31   16   21 ar  
    32   17   18 ar  
    33   17   35 1   
    34   18   19 ar  
    35   18   37 1   
    36   19   20 ar  
    37   19   38 1   
    38   20   21 ar  
    39   21   36 1   
@<TRIPOS>SUBSTRUCTURE
     1 FVQ         1 TEMP              0 ****  ****    0 ROOT
