@<TRIPOS>MOLECULE
molecule
   88    91     1     0     0
SMALL
bcc


@<TRIPOS>ATOM
      1 FAE          0.0000     0.0000     0.0000 f          1 FVS      -0.207633
      2 CBM          1.3990     0.0000     0.0000 c3         1 FVS       0.582900
      3 FAF          1.8650     0.0000     1.3190 f          1 FVS      -0.207633
      4 FAG          1.8650    -1.1430    -0.6590 f          1 FVS      -0.207633
      5 CBO          1.9090     1.2490    -0.7210 c3         1 FVS       0.367600
      6 FAH          1.4430     1.2480    -2.0400 f          1 FVS      -0.205800
      7 FAI          1.4430     2.3920    -0.0620 f          1 FVS      -0.205800
      8 CBA          3.4390     1.2490    -0.7210 c3         1 FVS      -0.123400
      9 CAT          3.9490     2.4970    -1.4430 c3         1 FVS      -0.052400
     10 CAY          5.4790     2.4980    -1.4420 c3         1 FVS      -0.086100
     11 SBI          6.0840     3.9790    -2.2980 s4         1 FVS       0.275600
     12 OAB          5.6810     3.9370    -3.6590 o          1 FVS      -0.498200
     13 CAX          7.8860     3.8020    -2.1950 c3         1 FVS      -0.083100
     14 CAS          8.5560     4.9930    -2.8830 c3         1 FVS      -0.055400
     15 CAQ         10.0760     4.8440    -2.7970 c3         1 FVS      -0.076400
     16 CAO         10.7450     6.0350    -3.4850 c3         1 FVS      -0.082400
     17 CAM         12.2660     5.8860    -3.3980 c3         1 FVS      -0.081400
     18 CAN         12.9350     7.0770    -4.0860 c3         1 FVS      -0.082400
     19 CAP         14.4560     6.9280    -3.9990 c3         1 FVS      -0.081400
     20 CAR         15.1250     8.1190    -4.6880 c3         1 FVS      -0.083400
     21 CAU         16.6450     7.9700    -4.6010 c3         1 FVS      -0.082400
     22 CBH         17.3140     9.1620    -5.2890 c3         1 FVS      -0.064700
     23 CBN         18.8290     9.0820    -5.0980 c3         1 FVS      -0.052700
     24 CBK         19.2250     9.2970    -3.6520 c3         1 FVS      -0.068700
     25 CAZ         18.9300    10.6850    -3.0720 c3         1 FVS      -0.073400
     26 CAV         19.9410    10.7930    -1.8980 c3         1 FVS      -0.106400
     27 CBG         21.1050     9.8280    -2.2330 c3         1 FVS       0.154100
     28 OAD         22.3450    10.5400    -2.2690 oh         1 FVS      -0.600800
     29 CBL         20.7790     9.2680    -3.6120 c3         1 FVS      -0.070000
     30 CAA         21.3370    10.1980    -4.6900 c3         1 FVS      -0.083100
     31 CBC         21.2280     7.8490    -3.8970 c3         1 FVS      -0.065400
     32 CBB         20.7830     7.4980    -5.3310 c3         1 FVS      -0.076400
     33 CBJ         19.2780     7.6660    -5.4820 c3         1 FVS      -0.023400
     34 CBF         18.8150     7.3370    -6.8710 ca         1 FVS      -0.078300
     35 CAK         19.4750     6.3300    -7.5620 ca         1 FVS      -0.116000
     36 CAJ         19.0840     5.9810    -8.8380 ca         1 FVS      -0.162000
     37 CBD         18.0190     6.6400    -9.4340 ca         1 FVS       0.103100
     38 OAC         17.6210     6.3000   -10.6880 oh         1 FVS      -0.521100
     39 CAL         17.3630     7.6470    -8.7460 ca         1 FVS      -0.150000
     40 CBE         17.7620     8.0020    -7.4650 ca         1 FVS      -0.056300
     41 CAW         17.0180     9.1240    -6.7880 c3         1 FVS      -0.032100
     42 H1           3.8000     1.2490     0.3000 hc         1 FVS       0.080700
     43 H2           3.8010     0.3640    -1.2320 hc         1 FVS       0.080700
     44 H3           3.5890     2.4960    -2.4640 hc         1 FVS       0.065200
     45 H4           3.5870     3.3820    -0.9330 hc         1 FVS       0.065200
     46 H5           5.8400     2.5000    -0.4200 h1         1 FVS       0.075700
     47 H6           5.8410     1.6130    -1.9510 h1         1 FVS       0.075700
     48 H8           8.1880     2.8850    -2.6870 h1         1 FVS       0.074700
     49 H9           8.1870     3.7700    -1.1550 h1         1 FVS       0.074700
     50 H10          8.2550     5.0250    -3.9230 hc         1 FVS       0.049700
     51 H11          8.2540     5.9100    -2.3920 hc         1 FVS       0.049700
     52 H12         10.3770     4.8120    -1.7570 hc         1 FVS       0.042200
     53 H13         10.3770     3.9270    -3.2890 hc         1 FVS       0.042200
     54 H14         10.4440     6.9520    -2.9940 hc         1 FVS       0.042700
     55 H15         10.4450     6.0670    -4.5250 hc         1 FVS       0.042700
     56 H16         12.5670     5.8540    -2.3570 hc         1 FVS       0.040700
     57 H17         12.5680     4.9690    -3.8890 hc         1 FVS       0.040700
     58 H18         12.6340     7.1090    -5.1260 hc         1 FVS       0.041700
     59 H19         12.6340     7.9940    -3.5940 hc         1 FVS       0.041700
     60 H20         14.7570     6.0110    -4.4910 hc         1 FVS       0.041200
     61 H21         14.7570     6.8960    -2.9590 hc         1 FVS       0.041200
     62 H22         14.8230     9.0360    -4.1960 hc         1 FVS       0.041700
     63 H23         14.8230     8.1520    -5.7280 hc         1 FVS       0.041700
     64 H24         16.9470     7.0530    -5.0930 hc         1 FVS       0.048200
     65 H25         16.9460     7.9380    -3.5610 hc         1 FVS       0.048200
     66 H26         16.9430    10.0880    -4.8690 hc         1 FVS       0.055700
     67 H27         19.3210     9.8120    -5.7300 hc         1 FVS       0.070700
     68 H28         18.8130     8.5210    -3.0200 hc         1 FVS       0.057700
     69 H29         19.1190    11.4550    -3.8100 hc         1 FVS       0.048700
     70 H30         17.9120    10.7370    -2.7050 hc         1 FVS       0.048700
     71 H31         19.4660    10.4930    -0.9720 hc         1 FVS       0.050700
     72 H32         20.3110    11.8080    -1.8210 hc         1 FVS       0.050700
     73 H33         21.1470     9.0270    -1.5050 h1         1 FVS       0.033700
     74 H34         22.8070    10.4080    -1.4580 ho         1 FVS       0.397000
     75 H35         21.1820     9.7540    -5.6660 hc         1 FVS       0.044033
     76 H36         22.3980    10.3460    -4.5260 hc         1 FVS       0.044033
     77 H37         20.8280    11.1530    -4.6430 hc         1 FVS       0.044033
     78 H38         22.3060     7.7840    -3.8220 hc         1 FVS       0.044200
     79 H39         20.7630     7.1700    -3.1930 hc         1 FVS       0.044200
     80 H40         21.0360     6.4630    -5.5260 hc         1 FVS       0.050700
     81 H41         21.2760     8.1720    -6.0200 hc         1 FVS       0.050700
     82 H42         18.8000     6.9720    -4.8020 hc         1 FVS       0.059700
     83 H43         20.3060     5.8150    -7.0950 ha         1 FVS       0.135000
     84 H44         19.5330     5.1240    -9.3260 ha         1 FVS       0.136000
     85 H45         17.1130     5.5070   -10.6520 ho         1 FVS       0.417000
     86 H46         16.5320     8.1630    -9.2120 ha         1 FVS       0.140000
     87 H47         17.3190    10.0650    -7.2310 hc         1 FVS       0.054700
     88 H48         15.9540     8.9810    -6.9340 hc         1 FVS       0.054700
@<TRIPOS>BOND
     1     6     5 1
     2     1     2 1
     3     5     7 1
     4     5     2 1
     5     5     8 1
     6     4     2 1
     7     2     3 1
     8     8     9 1
     9     9    10 1
    10    10    11 1
    11    11    12 2
    12    11    13 1
    13    13    14 1
    14    14    15 1
    15    17    16 1
    16    17    18 1
    17    16    15 1
    18    18    19 1
    19    19    20 1
    20    20    21 1
    21    26    25 1
    22    26    27 1
    23    25    24 1
    24    21    22 1
    25    28    27 1
    26    30    29 1
    27    27    29 1
    28    24    29 1
    29    24    23 1
    30    22    23 1
    31    22    41 1
    32    29    31 1
    33    23    33 1
    34    41    40 1
    35    31    32 1
    36    33    32 1
    37    33    34 1
    38    40    39 ar
    39    40    34 ar
    40    39    37 ar
    41    34    35 ar
    42    37    38 1
    43    37    36 ar
    44    35    36 ar
    45     8    42 1
    46     8    43 1
    47     9    44 1
    48     9    45 1
    49    10    46 1
    50    10    47 1
    51    13    48 1
    52    13    49 1
    53    14    50 1
    54    14    51 1
    55    15    52 1
    56    15    53 1
    57    16    54 1
    58    16    55 1
    59    17    56 1
    60    17    57 1
    61    18    58 1
    62    18    59 1
    63    19    60 1
    64    19    61 1
    65    20    62 1
    66    20    63 1
    67    21    64 1
    68    21    65 1
    69    22    66 1
    70    23    67 1
    71    24    68 1
    72    25    69 1
    73    25    70 1
    74    26    71 1
    75    26    72 1
    76    27    73 1
    77    28    74 1
    78    30    75 1
    79    30    76 1
    80    30    77 1
    81    31    78 1
    82    31    79 1
    83    32    80 1
    84    32    81 1
    85    33    82 1
    86    35    83 1
    87    36    84 1
    88    38    85 1
    89    39    86 1
    90    41    87 1
    91    41    88 1
@<TRIPOS>SUBSTRUCTURE
     1 FVS         1 TEMP              0 ****  ****    0 ROOT
