@<TRIPOS>MOLECULE
FVS
   88    91     1     0     0
SMALL
bcc


@<TRIPOS>ATOM
      1 FAE         0.2730   -0.0160    0.6490 f         1 FVS     -0.219633
      2 CBM         1.6050    0.0800    0.3640 c3        1 FVS      0.580900
      3 FAF         2.2580   -0.1630    1.5400 f         1 FVS     -0.219633
      4 FAG         1.8920   -0.9810   -0.4480 f         1 FVS     -0.219633
      5 CBO         2.0170    1.4990   -0.2930 c3        1 FVS      0.395600
      6 FAH         1.2570    1.7160   -1.4160 f         1 FVS     -0.208300
      7 FAI         1.6280    2.5140    0.5470 f         1 FVS     -0.208300
      8 CBA         3.5350    1.4700   -0.5670 c3        1 FVS     -0.118400
      9 CAT         4.0170    2.7640   -1.1830 c3        1 FVS     -0.062400
     10 CAY         5.5130    2.7520   -1.3590 c3        1 FVS     -0.091100
     11 SBI         6.0280    4.2370   -2.1580 s4        1 FVS      0.259600
     12 OAB         5.4900    4.1490   -3.5430 o         1 FVS     -0.495200
     13 CAX         7.7420    3.8720   -2.2850 c3        1 FVS     -0.094100
     14 CAS         8.4670    5.0780   -2.8300 c3        1 FVS     -0.059400
     15 CAQ         9.9560    4.8230   -2.9420 c3        1 FVS     -0.074400
     16 CAO        10.6770    6.0340   -3.4940 c3        1 FVS     -0.079400
     17 CAM        12.1660    5.7800   -3.6060 c3        1 FVS     -0.078400
     18 CAN        12.8870    6.9860   -4.1680 c3        1 FVS     -0.079400
     19 CAP        14.3760    6.7350   -4.2760 c3        1 FVS     -0.079400
     20 CAR        15.0950    7.9360   -4.8510 c3        1 FVS     -0.078400
     21 CAU        16.5860    7.6850   -4.9450 c3        1 FVS     -0.078400
     22 CBH        17.3250    8.8640   -5.5590 c3        1 FVS     -0.054700
     23 CBN        18.8080    8.9150   -5.2030 c3        1 FVS     -0.044700
     24 CBK        19.0790    9.1120   -3.7290 c3        1 FVS     -0.065700
     25 CAZ        18.4040   10.2510   -2.9770 c3        1 FVS     -0.068400
     26 CAV        19.2900   10.4810   -1.7500 c3        1 FVS     -0.117400
     27 CBG        20.5800    9.6580   -1.9630 c3        1 FVS      0.141100
     28 OAD        21.7460   10.3820   -1.6160 oh        1 FVS     -0.591800
     29 CBL        20.5920    9.3280   -3.4770 c3        1 FVS     -0.044000
     30 CAA        21.1820   10.5070   -4.2310 c3        1 FVS     -0.078100
     31 CBC        21.3020    8.0420   -3.8610 c3        1 FVS     -0.064400
     32 CBB        21.0050    7.6590   -5.3030 c3        1 FVS     -0.071400
     33 CBJ        19.5180    7.6260   -5.6490 c3        1 FVS     -0.008400
     34 CBF        19.2690    7.3680   -7.1040 ca        1 FVS     -0.100300
     35 CAK        20.1140    6.5100   -7.8240 ca        1 FVS     -0.097000
     36 CAJ        19.8870    6.2180   -9.1620 ca        1 FVS     -0.159000
     37 CBD        18.7790    6.7940   -9.8030 ca        1 FVS      0.123100
     38 OAC        18.5970    6.4740  -11.1300 oh        1 FVS     -0.498100
     39 CAL        17.9180    7.6440   -9.1050 ca        1 FVS     -0.218000
     40 CBE        18.1590    7.9320   -7.7550 ca        1 FVS     -0.031300
     41 CAW        17.2100    8.8610   -7.0780 c3        1 FVS     -0.036100
     42 H1          3.7430    0.6090   -1.2530 hc        1 FVS      0.084200
     43 H2          4.0530    1.2830    0.4100 hc        1 FVS      0.084200
     44 H3          3.5190    2.9080   -2.1830 hc        1 FVS      0.069200
     45 H4          3.7100    3.6210   -0.5250 hc        1 FVS      0.069200
     46 H5          5.8110    1.8430   -1.9390 h1        1 FVS      0.083200
     47 H6          6.0180    2.6840   -0.3640 h1        1 FVS      0.083200
     48 H8          8.1420    3.6110   -1.2740 h1        1 FVS      0.084700
     49 H9          7.9400    2.9940   -2.9490 h1        1 FVS      0.084700
     50 H10         8.2930    5.9630   -2.1610 hc        1 FVS      0.050200
     51 H11         8.0550    5.3330   -3.8440 hc        1 FVS      0.050200
     52 H12        10.3700    4.5640   -1.9330 hc        1 FVS      0.042200
     53 H13        10.1350    3.9400   -3.6110 hc        1 FVS      0.042200
     54 H14        10.4950    6.9180   -2.8280 hc        1 FVS      0.041200
     55 H15        10.2630    6.2900   -4.5050 hc        1 FVS      0.041200
     56 H16        12.5820    5.5310   -2.5940 hc        1 FVS      0.040200
     57 H17        12.3480    4.8920   -4.2660 hc        1 FVS      0.040200
     58 H18        12.4730    7.2320   -5.1820 hc        1 FVS      0.039700
     59 H19        12.7020    7.8760   -3.5110 hc        1 FVS      0.039700
     60 H20        14.7910    6.4980   -3.2610 hc        1 FVS      0.040700
     61 H21        14.5600    5.8390   -4.9260 hc        1 FVS      0.040700
     62 H22        14.6810    8.1680   -5.8680 hc        1 FVS      0.038700
     63 H23        14.9040    8.8330   -4.2050 hc        1 FVS      0.038700
     64 H24        16.9830    7.4870   -3.9140 hc        1 FVS      0.046700
     65 H25        16.7750    6.7640   -5.5580 hc        1 FVS      0.046700
     66 H26        16.8520    9.8120   -5.1710 hc        1 FVS      0.049700
     67 H27        19.2480    9.7830   -5.7730 hc        1 FVS      0.061700
     68 H28        18.7910    8.1560   -3.1980 hc        1 FVS      0.046700
     69 H29        18.3520   11.1720   -3.6090 hc        1 FVS      0.045200
     70 H30        17.3610    9.9780   -2.6830 hc        1 FVS      0.045200
     71 H31        18.7720   10.1520   -0.8170 hc        1 FVS      0.047200
     72 H32        19.5440   11.5650   -1.6440 hc        1 FVS      0.047200
     73 H33        20.5430    8.7080   -1.3630 h1        1 FVS      0.033700
     74 H34        21.6450   10.6300   -0.6890 ho        1 FVS      0.398000
     75 H35        20.6000   11.4340   -4.0110 hc        1 FVS      0.041367
     76 H36        22.2380   10.6670   -3.8990 hc        1 FVS      0.041367
     77 H37        21.1810   10.3330   -5.3330 hc        1 FVS      0.041367
     78 H38        20.9750    7.2150   -3.1790 hc        1 FVS      0.044700
     79 H39        22.4090    8.1690   -3.7340 hc        1 FVS      0.044700
     80 H40        21.5270    8.3690   -5.9970 hc        1 FVS      0.043700
     81 H41        21.4430    6.6400   -5.4760 hc        1 FVS      0.043700
     82 H42        19.0560    6.7660   -5.0770 hc        1 FVS      0.055700
     83 H43        20.9810    6.0480   -7.3280 ha        1 FVS      0.135000
     84 H44        20.5540    5.5480   -9.7230 ha        1 FVS      0.149000
     85 H45        17.8060    6.9360  -11.4410 ho        1 FVS      0.417000
     86 H46        17.0490    8.0890   -9.6120 ha        1 FVS      0.131000
     87 H47        17.4120    9.9000   -7.4590 hc        1 FVS      0.052200
     88 H48        16.1580    8.5990   -7.3720 hc        1 FVS      0.052200
@<TRIPOS>BOND
     1    1    2 1   
     2    2    3 1   
     3    2    4 1   
     4    2    5 1   
     5    5    6 1   
     6    5    7 1   
     7    5    8 1   
     8    8    9 1   
     9    8   42 1   
    10    8   43 1   
    11    9   10 1   
    12    9   44 1   
    13    9   45 1   
    14   10   11 1   
    15   10   46 1   
    16   10   47 1   
    17   11   12 2   
    18   11   13 1   
    19   13   14 1   
    20   13   48 1   
    21   13   49 1   
    22   14   15 1   
    23   14   50 1   
    24   14   51 1   
    25   15   16 1   
    26   15   52 1   
    27   15   53 1   
    28   16   17 1   
    29   16   54 1   
    30   16   55 1   
    31   17   18 1   
    32   17   56 1   
    33   17   57 1   
    34   18   19 1   
    35   18   58 1   
    36   18   59 1   
    37   19   20 1   
    38   19   60 1   
    39   19   61 1   
    40   20   21 1   
    41   20   62 1   
    42   20   63 1   
    43   21   22 1   
    44   21   64 1   
    45   21   65 1   
    46   22   23 1   
    47   22   41 1   
    48   22   66 1   
    49   23   24 1   
    50   23   33 1   
    51   23   67 1   
    52   24   25 1   
    53   24   29 1   
    54   24   68 1   
    55   25   26 1   
    56   25   69 1   
    57   25   70 1   
    58   26   27 1   
    59   26   71 1   
    60   26   72 1   
    61   27   28 1   
    62   27   29 1   
    63   27   73 1   
    64   28   74 1   
    65   29   30 1   
    66   29   31 1   
    67   30   75 1   
    68   30   76 1   
    69   30   77 1   
    70   31   32 1   
    71   31   78 1   
    72   31   79 1   
    73   32   33 1   
    74   32   80 1   
    75   32   81 1   
    76   33   34 1   
    77   33   82 1   
    78   34   35 ar  
    79   34   40 ar  
    80   35   36 ar  
    81   35   83 1   
    82   36   37 ar  
    83   36   84 1   
    84   37   38 1   
    85   37   39 ar  
    86   38   85 1   
    87   39   40 ar  
    88   39   86 1   
    89   40   41 1   
    90   41   87 1   
    91   41   88 1   
@<TRIPOS>SUBSTRUCTURE
     1 FVS         1 TEMP              0 ****  ****    0 ROOT
