@<TRIPOS>MOLECULE
FVW
   51    51     1     0     0
SMALL
bcc


@<TRIPOS>ATOM
      1 OBD          0.0000     0.0000     0.0000 o          1 FVW      -0.936300
      2 CAN          1.2080     0.0000     0.0000 c          1 FVW       0.986600
      3 OBE          1.8790     0.0000     1.1620 o          1 FVW      -0.936300
      4 CAL          1.9630    -0.0080    -1.3050 c3         1 FVW      -0.142400
      5 CAK          0.9680    -0.0130    -2.4670 c3         1 FVW      -0.012400
      6 CAG          1.7330    -0.0210    -3.7930 c3         1 FVW      -0.085300
      7 CAJ          0.7590    -0.1500    -4.9340 c          1 FVW       0.988600
      8 OBC         -0.0400    -1.2250    -5.0170 o          1 FVW      -0.926800
      9 OBB          0.6980     0.7140    -5.7770 o          1 FVW      -0.926800
     10 NAF          2.4840     1.2300    -3.9300 ns         1 FVW      -0.164900
     11 CAE          3.5850     1.2730    -4.7050 c          1 FVW       0.597100
     12 OAH          3.9560     0.2740    -5.2910 o          1 FVW      -0.729100
     13 N            4.2760     2.4230    -4.8320 ns         1 FVW      -0.209900
     14 CA           5.4730     2.4700    -5.6740 c3         1 FVW      -0.068300
     15 C            6.6670     2.0110    -4.8770 c          1 FVW       0.975600
     16 OXT          7.8800     1.9710    -5.4490 o          1 FVW      -0.907300
     17 O            6.5310     1.6780    -3.7230 o          1 FVW      -0.907300
     18 CB           5.7030     3.9050    -6.1550 c3         1 FVW      -0.025400
     19 CAD          4.5490     4.3280    -7.0670 c3         1 FVW      -0.034400
     20 CAM          4.7790     5.7620    -7.5480 c3         1 FVW      -0.095400
     21 CAO          3.6430     6.1780    -8.4470 c          1 FVW       0.571100
     22 OAP          2.7390     5.4040    -8.6800 o          1 FVW      -0.586100
     23 NAQ          3.6320     7.4110    -8.9920 n          1 FVW      -0.077000
     24 CAY          4.6610     8.3860    -8.6200 c3         1 FVW       0.084300
     25 CAR          2.6360     7.7600    -9.9120 ca         1 FVW      -0.149700
     26 CAS          1.3080     7.8680    -9.5100 ca         1 FVW      -0.009000
     27 CAT          0.3580     8.2160   -10.4550 ca         1 FVW      -0.229300
     28 CAU          0.7590     8.4440   -11.7620 ca         1 FVW       0.537500
     29 FAX         -0.1620     8.7780   -12.6940 f          1 FVW      -0.237200
     30 NAV          2.0270     8.3340   -12.1110 nb         1 FVW      -0.620000
     31 CAW          2.9610     8.0100   -11.2380 ca         1 FVW       0.405200
     32 H2           2.5840    -0.8930    -1.3570 hc         1 FVW       0.010700
     33 H3           2.5860     0.8760    -1.3670 hc         1 FVW       0.010700
     34 H4           0.3460     0.8720    -2.4150 hc         1 FVW       0.024700
     35 H5           0.3450    -0.8970    -2.4050 hc         1 FVW       0.024700
     36 H6           2.4210    -0.8590    -3.8080 h1         1 FVW       0.053700
     37 H8           2.1510     2.0640    -3.4880 hn         1 FVW       0.142500
     38 H9           3.9890     3.2370    -4.3240 hn         1 FVW       0.138500
     39 H10          5.3380     1.8200    -6.5300 h1         1 FVW       0.058700
     40 H12          5.7490     4.5690    -5.3000 hc         1 FVW       0.011200
     41 H13          6.6350     3.9570    -6.7030 hc         1 FVW       0.011200
     42 H14          4.5030     3.6640    -7.9220 hc         1 FVW       0.040200
     43 H15          3.6170     4.2760    -6.5190 hc         1 FVW       0.040200
     44 H16          5.7110     5.8130    -8.0980 hc         1 FVW       0.022200
     45 H17          4.8260     6.4260    -6.6940 hc         1 FVW       0.022200
     46 H18          4.4430     9.3380    -9.0890 h1         1 FVW       0.005700
     47 H19          5.6290     8.0330    -8.9520 h1         1 FVW       0.005700
     48 H20          4.6700     8.5080    -7.5440 h1         1 FVW       0.005700
     49 H21          1.0620     7.9090    -8.4550 ha         1 FVW       0.127000
     50 H22         -0.6460     8.4780   -10.1440 ha         1 FVW       0.122000
     51 H23          3.9060     7.9240   -11.7610 h4         1 FVW      -0.009900
@<TRIPOS>BOND
     1     1     2 1   
     2     2     3 1   
     3     2     4 1   
     4     4     5 1   
     5     4    32 1   
     6     4    33 1   
     7     5     6 1   
     8     5    34 1   
     9     5    35 1   
    10     6     7 1   
    11     6    10 1   
    12     6    36 1   
    13     7     8 1   
    14     7     9 1   
    15    10    11 1   
    16    10    37 1   
    17    11    12 2   
    18    11    13 1   
    19    13    14 1   
    20    13    38 1   
    21    14    15 1   
    22    14    18 1   
    23    14    39 1   
    24    15    16 1   
    25    15    17 1   
    26    18    19 1   
    27    18    40 1   
    28    18    41 1   
    29    19    20 1   
    30    19    42 1   
    31    19    43 1   
    32    20    21 1   
    33    20    44 1   
    34    20    45 1   
    35    21    22 2   
    36    21    23 1   
    37    23    24 1   
    38    23    25 1   
    39    24    46 1   
    40    24    47 1   
    41    24    48 1   
    42    25    26 ar  
    43    25    31 ar  
    44    26    27 ar  
    45    26    49 1   
    46    27    28 ar  
    47    27    50 1   
    48    28    29 1   
    49    28    30 ar  
    50    30    31 ar  
    51    31    51 1   
@<TRIPOS>SUBSTRUCTURE
     1 FVW         1 TEMP              0 ****  ****    0 ROOT
