@<TRIPOS>MOLECULE
molecule
   44    44     1     0     0
SMALL
bcc


@<TRIPOS>ATOM
      1 C1           0.0000     0.0000     0.0000 c3         1 FVX       0.128700
      2 O2           1.4300     0.0000     0.0000 os         1 FVX      -0.431600
      3 C3           2.0100     0.0000     1.3050 c3         1 FVX       0.140400
      4 C4           3.5350    -0.0010     1.1850 c3         1 FVX      -0.081400
      5 C5           4.1570    -0.0010     2.5830 c3         1 FVX      -0.077400
      6 C6           5.6830    -0.0010     2.4620 c3         1 FVX      -0.158700
      7 C7           6.2950     0.1170     3.8340 ce         1 FVX       0.477900
      8 N8           6.5570    -0.9480     4.5190 n2         1 FVX      -0.452200
      9 O9           6.3720    -2.2270     3.9390 os         1 FVX      -0.253300
     10 C10          6.7010    -3.3130     4.8090 c3         1 FVX       0.130400
     11 C11          6.4640    -4.6380     4.0820 c3         1 FVX       0.096800
     12 N12          7.3970    -4.7490     2.9520 nz         1 FVX      -0.809600
     13 C13          6.5960     1.4490     4.3960 ca         1 FVX      -0.129900
     14 C14          6.3090     2.6000     3.6610 ca         1 FVX      -0.096500
     15 C15          6.5930     3.8420     4.1920 ca         1 FVX      -0.083000
     16 C16          7.1610     3.9470     5.4490 ca         1 FVX      -0.147300
     17 C17          7.4480     2.8100     6.1820 ca         1 FVX      -0.083000
     18 C18          7.1630     1.5620     5.6670 ca         1 FVX      -0.096500
     19 C19          7.4680     5.3060     6.0220 c3         1 FVX       0.673200
     20 F20          8.5710     5.2130     6.8770 f          1 FVX      -0.215300
     21 F21          7.7580     6.1960     4.9820 f          1 FVX      -0.215300
     22 F22          6.3600     5.7710     6.7390 f          1 FVX      -0.215300
     23 H1          -0.3610    -0.0020    -1.0210 h1         1 FVX       0.035367
     24 H2          -0.3610    -0.8830     0.5130 h1         1 FVX       0.035367
     25 H3          -0.3610     0.8860     0.5090 h1         1 FVX       0.035367
     26 H4           1.6890    -0.8840     1.8430 h1         1 FVX       0.025200
     27 H5           1.6900     0.8850     1.8430 h1         1 FVX       0.025200
     28 H6           3.8540    -0.8860     0.6480 hc         1 FVX       0.054200
     29 H7           3.8550     0.8830     0.6470 hc         1 FVX       0.054200
     30 H8           3.8370    -0.8850     3.1210 hc         1 FVX       0.053200
     31 H9           3.8380     0.8840     3.1200 hc         1 FVX       0.053200
     32 H10          5.9980     0.8370     1.8530 hc         1 FVX       0.062200
     33 H11          6.0080    -0.9260     2.0000 hc         1 FVX       0.062200
     34 H12          7.7420    -3.2410     5.0990 h1         1 FVX       0.078700
     35 H13          6.0760    -3.2690     5.6920 h1         1 FVX       0.078700
     36 H14          5.4460    -4.6710     3.7140 hx         1 FVX       0.120200
     37 H15          6.6270    -5.4600     4.7670 hx         1 FVX       0.120200
     38 H16          7.4590    -5.7050     2.6630 hn         1 FVX       0.460133
     39 H17          8.3020    -4.4260     3.2330 hn         1 FVX       0.460133
     40 H19          5.8640     2.5190     2.6770 ha         1 FVX       0.151000
     41 H20          6.3710     4.7360     3.6230 ha         1 FVX       0.162000
     42 H21          7.8900     2.8990     7.1670 ha         1 FVX       0.162000
     43 H22          7.3890     0.6720     6.2420 ha         1 FVX       0.151000
     44 H123         7.0760    -4.1760     2.1960 hn         1 FVX       0.460133
@<TRIPOS>BOND
     1    12    11 1
     2    11    10 1
     3    10     9 1
     4     9     8 1
     5     8     7 2
     6     7    13 1
     7     7     6 1
     8    14    13 ar
     9    14    15 ar
    10    13    18 ar
    11    15    16 ar
    12     4     5 1
    13     4     3 1
    14     6     5 1
    15    18    17 ar
    16    16    17 ar
    17    16    19 1
    18    21    19 1
    19     3     2 1
    20    20    19 1
    21    19    22 1
    22     2     1 1
    23     1    23 1
    24     1    24 1
    25     1    25 1
    26     3    26 1
    27     3    27 1
    28     4    28 1
    29     4    29 1
    30     5    30 1
    31     5    31 1
    32     6    32 1
    33     6    33 1
    34    10    34 1
    35    10    35 1
    36    11    36 1
    37    11    37 1
    38    12    38 1
    39    12    39 1
    40    14    40 1
    41    15    41 1
    42    17    42 1
    43    18    43 1
    44    44    12 1
@<TRIPOS>SUBSTRUCTURE
     1 FVX         1 TEMP              0 ****  ****    0 ROOT
