@<TRIPOS>MOLECULE
FVX
   44    44     1     0     0
SMALL
bcc


@<TRIPOS>ATOM
      1 C1           0.0000     0.0000     0.0000 c3         1 FVX       0.255700
      2 O2           1.4300     0.0000     0.0000 os         1 FVX      -0.419600
      3 C3           2.0100     0.0000     1.3050 c3         1 FVX       0.214400
      4 C4           3.5350    -0.0010     1.1850 c3         1 FVX      -0.034400
      5 C5           4.1570    -0.0010     2.5830 c3         1 FVX      -0.019400
      6 C6           5.6830    -0.0010     2.4620 c3         1 FVX      -0.097700
      7 C7           6.2950     0.1170     3.8340 ce         1 FVX       0.474900
      8 N8           6.5570    -0.9480     4.5190 n2         1 FVX      -0.419200
      9 O9           6.3720    -2.2270     3.9390 os         1 FVX      -0.242300
     10 C10          6.7010    -3.3130     4.8090 c3         1 FVX       0.221400
     11 C11          6.4640    -4.6380     4.0820 c3         1 FVX      -0.050200
     12 N12          7.3970    -4.7490     2.9520 nz         1 FVX       0.084400
     13 C13          6.5960     1.4490     4.3960 ca         1 FVX      -0.140900
     14 C14          6.3090     2.6000     3.6610 ca         1 FVX      -0.073500
     15 C15          6.5930     3.8420     4.1920 ca         1 FVX      -0.042500
     16 C16          7.1610     3.9470     5.4490 ca         1 FVX      -0.176300
     17 C17          7.4480     2.8100     6.1820 ca         1 FVX      -0.042500
     18 C18          7.1630     1.5620     5.6670 ca         1 FVX      -0.073500
     19 C19          7.4680     5.3060     6.0220 c3         1 FVX       0.639200
     20 F20          8.5710     5.2130     6.8770 f          1 FVX      -0.201633
     21 F21          7.7580     6.1960     4.9820 f          1 FVX      -0.201633
     22 F22          6.3600     5.7710     6.7390 f          1 FVX      -0.201633
     23 H1          -0.3610    -0.0020    -1.0210 h1         1 FVX      -0.008633
     24 H2          -0.3610    -0.8840     0.5120 h1         1 FVX      -0.008633
     25 H3          -0.3610     0.8860     0.5090 h1         1 FVX      -0.008633
     26 H4           1.6900     0.8850     1.8430 h1         1 FVX      -0.008800
     27 H5           1.6890    -0.8840     1.8430 h1         1 FVX      -0.008800
     28 H6           3.8540    -0.8860     0.6480 hc         1 FVX       0.022700
     29 H7           3.8550     0.8830     0.6470 hc         1 FVX       0.022700
     30 H8           3.8370    -0.8850     3.1210 hc         1 FVX       0.022700
     31 H9           3.8380     0.8840     3.1200 hc         1 FVX       0.022700
     32 H10          5.9980     0.8370     1.8530 hc         1 FVX       0.031200
     33 H11          6.0080    -0.9260     2.0000 hc         1 FVX       0.031200
     34 H12          7.7420    -3.2410     5.0990 h1         1 FVX       0.038200
     35 H13          6.0760    -3.2690     5.6920 h1         1 FVX       0.038200
     36 H14          5.4460    -4.6710     3.7140 hx         1 FVX       0.090200
     37 H15          6.6270    -5.4600     4.7670 hx         1 FVX       0.090200
     38 H16          7.0660    -4.1910     2.1900 hn         1 FVX       0.226133
     39 H17          7.4590    -5.7050     2.6630 hn         1 FVX       0.226133
     40 H19          5.8640     2.5190     2.6770 ha         1 FVX       0.122500
     41 H20          6.3710     4.7360     3.6230 ha         1 FVX       0.128500
     42 H21          7.8910     2.8990     7.1670 ha         1 FVX       0.128500
     43 H22          7.3890     0.6720     6.2420 ha         1 FVX       0.122500
     44 H123         8.3060    -4.4440     3.2390 hn         1 FVX       0.226133
@<TRIPOS>BOND
     1     1     2 1   
     2     1    23 1   
     3     1    24 1   
     4     1    25 1   
     5     2     3 1   
     6     3     4 1   
     7     3    26 1   
     8     3    27 1   
     9     4     5 1   
    10     4    28 1   
    11     4    29 1   
    12     5     6 1   
    13     5    30 1   
    14     5    31 1   
    15     6     7 1   
    16     6    32 1   
    17     6    33 1   
    18     7     8 2   
    19     7    13 1   
    20     8     9 1   
    21     9    10 1   
    22    10    11 1   
    23    10    34 1   
    24    10    35 1   
    25    11    12 1   
    26    11    36 1   
    27    11    37 1   
    28    12    38 1   
    29    12    39 1   
    30    12    44 1   
    31    13    14 ar  
    32    13    18 ar  
    33    14    15 ar  
    34    14    40 1   
    35    15    16 ar  
    36    15    41 1   
    37    16    17 ar  
    38    16    19 1   
    39    17    18 ar  
    40    17    42 1   
    41    18    43 1   
    42    19    20 1   
    43    19    21 1   
    44    19    22 1   
@<TRIPOS>SUBSTRUCTURE
     1 FVX         1 TEMP              0 ****  ****    0 ROOT
