@<TRIPOS>MOLECULE
FVZ
   49    49     1     0     0
SMALL
bcc


@<TRIPOS>ATOM
      1 OBC          0.0000     0.0000     0.0000 o          1 FVZ      -0.936300
      2 CBB          1.2080     0.0000     0.0000 c          1 FVZ       0.986600
      3 OBD          1.8780     0.0000     1.1630 o          1 FVZ      -0.936300
      4 CBA          1.9620    -0.0050    -1.3040 c3         1 FVZ      -0.142400
      5 CAZ          0.9680    -0.0100    -2.4680 c3         1 FVZ      -0.012400
      6 CAV          1.7340    -0.0150    -3.7930 c3         1 FVZ      -0.085300
      7 CAW          0.7590    -0.1440    -4.9350 c          1 FVZ       0.988600
      8 OAY          0.6980     0.7200    -5.7770 o          1 FVZ      -0.926300
      9 OAX         -0.0390    -1.2210    -5.0180 o          1 FVZ      -0.926300
     10 NAU          2.4830     1.2360    -3.9290 ns         1 FVZ      -0.163900
     11 CAA          3.5840     1.2810    -4.7030 c          1 FVZ       0.597100
     12 OAT          3.9570     0.2830    -5.2890 o          1 FVZ      -0.729100
     13 N            4.2740     2.4330    -4.8290 ns         1 FVZ      -0.211900
     14 CA           5.4720     2.4820    -5.6710 c3         1 FVZ      -0.068300
     15 C            6.6650     2.0220    -4.8730 c          1 FVZ       0.975600
     16 OXT          7.8790     1.9850    -5.4450 o          1 FVZ      -0.907300
     17 O            6.5300     1.6890    -3.7200 o          1 FVZ      -0.907300
     18 CB           5.6990     3.9170    -6.1490 c3         1 FVZ      -0.025400
     19 CAM          4.5460     4.3400    -7.0620 c3         1 FVZ      -0.033400
     20 CAL          4.7740     5.7750    -7.5400 c3         1 FVZ      -0.094400
     21 CAJ          3.6380     6.1910    -8.4390 c          1 FVZ       0.554100
     22 OAK          2.7340     5.4170    -8.6730 o          1 FVZ      -0.591100
     23 NAI          3.6260     7.4250    -8.9820 ns         1 FVZ      -0.073100
     24 CAC          2.6230     7.7780    -9.8930 ca         1 FVZ      -0.069400
     25 CAB          1.3340     7.2840    -9.7350 ca         1 FVZ      -0.104500
     26 CAD          0.3460     7.6350   -10.6330 ca         1 FVZ      -0.117500
     27 CAF          0.6390     8.4790   -11.6910 ca         1 FVZ       0.056900
     28 FAH         -0.3290     8.8220   -12.5690 f          1 FVZ      -0.143900
     29 CAG          1.9230     8.9730   -11.8510 ca         1 FVZ      -0.117500
     30 CAE          2.9130     8.6290   -10.9510 ca         1 FVZ      -0.104500
     31 H2           2.5850    -0.8890    -1.3580 hc         1 FVZ       0.010700
     32 H3           2.5850     0.8800    -1.3650 hc         1 FVZ       0.010700
     33 H4           0.3450     0.8750    -2.4150 hc         1 FVZ       0.024700
     34 H5           0.3450    -0.8940    -2.4070 hc         1 FVZ       0.024700
     35 H6           2.4220    -0.8520    -3.8080 h1         1 FVZ       0.053700
     36 H8           2.1580     2.0650    -3.4730 hn         1 FVZ       0.142500
     37 H9           3.9870     3.2450    -4.3190 hn         1 FVZ       0.138500
     38 H10          5.3380     1.8330    -6.5280 h1         1 FVZ       0.058700
     39 H12          6.6320     3.9710    -6.6970 hc         1 FVZ       0.011700
     40 H13          5.7440     4.5800    -5.2930 hc         1 FVZ       0.011700
     41 H14          3.6130     4.2850    -6.5140 hc         1 FVZ       0.040200
     42 H15          4.5010     3.6770    -7.9180 hc         1 FVZ       0.040200
     43 H16          4.8190     6.4370    -6.6840 hc         1 FVZ       0.020700
     44 H17          5.7070     5.8290    -8.0880 hc         1 FVZ       0.020700
     45 H18          4.3100     8.1010    -8.7040 hn         1 FVZ       0.164500
     46 H19          1.1050     6.6240    -8.9070 ha         1 FVZ       0.135000
     47 H20         -0.6590     7.2500   -10.5100 ha         1 FVZ       0.111000
     48 H21          2.1500     9.6350   -12.6780 ha         1 FVZ       0.111000
     49 H22          3.9180     9.0150   -11.0760 ha         1 FVZ       0.135000
@<TRIPOS>BOND
     1     1     2 1   
     2     2     3 1   
     3     2     4 1   
     4     4     5 1   
     5     4    31 1   
     6     4    32 1   
     7     5     6 1   
     8     5    33 1   
     9     5    34 1   
    10     6     7 1   
    11     6    10 1   
    12     6    35 1   
    13     7     8 1   
    14     7     9 1   
    15    10    11 1   
    16    10    36 1   
    17    11    12 2   
    18    11    13 1   
    19    13    14 1   
    20    13    37 1   
    21    14    15 1   
    22    14    18 1   
    23    14    38 1   
    24    15    16 1   
    25    15    17 1   
    26    18    19 1   
    27    18    39 1   
    28    18    40 1   
    29    19    20 1   
    30    19    41 1   
    31    19    42 1   
    32    20    21 1   
    33    20    43 1   
    34    20    44 1   
    35    21    22 2   
    36    21    23 1   
    37    23    24 1   
    38    23    45 1   
    39    24    25 ar  
    40    24    30 ar  
    41    25    26 ar  
    42    25    46 1   
    43    26    27 ar  
    44    26    47 1   
    45    27    28 1   
    46    27    29 ar  
    47    29    30 ar  
    48    29    48 1   
    49    30    49 1   
@<TRIPOS>SUBSTRUCTURE
     1 FVZ         1 TEMP              0 ****  ****    0 ROOT
