@<TRIPOS>MOLECULE
molecule
   49    49     1     0     0
SMALL
bcc


@<TRIPOS>ATOM
      1 OBC          0.0000     0.0000     0.0000 o          1 FVZ      -0.889300
      2 CBB          1.2080     0.0000     0.0000 c          1 FVZ       0.891600
      3 OBD          1.8780     0.0000     1.1630 o          1 FVZ      -0.889300
      4 CBA          1.9620    -0.0050    -1.3040 c3         1 FVZ      -0.183400
      5 CAZ          0.9680    -0.0100    -2.4680 c3         1 FVZ      -0.059400
      6 CAV          1.7340    -0.0150    -3.7930 c3         1 FVZ       0.023700
      7 CAW          0.7590    -0.1440    -4.9350 c          1 FVZ       0.892600
      8 OAY          0.6980     0.7200    -5.7770 o          1 FVZ      -0.876800
      9 OAX         -0.0390    -1.2210    -5.0180 o          1 FVZ      -0.876800
     10 NAU          2.4830     1.2360    -3.9290 ns         1 FVZ      -0.564900
     11 CAA          3.5840     1.2810    -4.7030 c          1 FVZ       0.801100
     12 OAT          3.9570     0.2830    -5.2890 o          1 FVZ      -0.681100
     13 N            4.2740     2.4330    -4.8290 ns         1 FVZ      -0.594900
     14 CA           5.4720     2.4820    -5.6710 c3         1 FVZ       0.037700
     15 C            6.6650     2.0220    -4.8730 c          1 FVZ       0.884600
     16 OXT          7.8790     1.9850    -5.4450 o          1 FVZ      -0.856300
     17 O            6.5300     1.6890    -3.7200 o          1 FVZ      -0.856300
     18 CB           5.6990     3.9170    -6.1490 c3         1 FVZ      -0.077400
     19 CAM          4.5460     4.3400    -7.0620 c3         1 FVZ      -0.075400
     20 CAL          4.7740     5.7750    -7.5400 c3         1 FVZ      -0.154400
     21 CAJ          3.6380     6.1910    -8.4390 c          1 FVZ       0.646100
     22 OAK          2.7340     5.4170    -8.6730 o          1 FVZ      -0.560100
     23 NAI          3.6260     7.4250    -8.9820 ns         1 FVZ      -0.499100
     24 CAC          2.6230     7.7780    -9.8930 ca         1 FVZ       0.063600
     25 CAB          1.3340     7.2840    -9.7350 ca         1 FVZ      -0.127500
     26 CAD          0.3460     7.6350   -10.6330 ca         1 FVZ      -0.154000
     27 CAF          0.6390     8.4790   -11.6910 ca         1 FVZ       0.087900
     28 FAH         -0.3290     8.8220   -12.5690 f          1 FVZ      -0.161900
     29 CAG          1.9230     8.9730   -11.8510 ca         1 FVZ      -0.154000
     30 CAE          2.9130     8.6290   -10.9510 ca         1 FVZ      -0.127500
     31 H2           2.5850    -0.8890    -1.3580 hc         1 FVZ       0.033200
     32 H3           2.5850     0.8800    -1.3650 hc         1 FVZ       0.033200
     33 H4           0.3450     0.8750    -2.4150 hc         1 FVZ       0.047700
     34 H5           0.3450    -0.8940    -2.4070 hc         1 FVZ       0.047700
     35 H6           2.4220    -0.8520    -3.8080 h1         1 FVZ       0.069700
     36 H8           2.1580     2.0650    -3.4730 hn         1 FVZ       0.283500
     37 H9           3.9870     3.2450    -4.3190 hn         1 FVZ       0.277500
     38 H10          5.3380     1.8330    -6.5280 h1         1 FVZ       0.076700
     39 H12          6.6320     3.9710    -6.6970 hc         1 FVZ       0.036200
     40 H13          5.7440     4.5800    -5.2930 hc         1 FVZ       0.036200
     41 H14          3.6130     4.2850    -6.5140 hc         1 FVZ       0.068700
     42 H15          4.5010     3.6770    -7.9180 hc         1 FVZ       0.068700
     43 H16          4.8190     6.4370    -6.6840 hc         1 FVZ       0.050700
     44 H17          5.7070     5.8290    -8.0880 hc         1 FVZ       0.050700
     45 H18          4.3100     8.1010    -8.7040 hn         1 FVZ       0.316500
     46 H19          1.1050     6.6240    -8.9070 ha         1 FVZ       0.159500
     47 H20         -0.6590     7.2500   -10.5100 ha         1 FVZ       0.137000
     48 H21          2.1500     9.6350   -12.6780 ha         1 FVZ       0.137000
     49 H22          3.9180     9.0150   -11.0760 ha         1 FVZ       0.159500
@<TRIPOS>BOND
     1    29    30 ar
     2    29    27 ar
     3    28    27 1
     4     8     7 1
     5     1     2 1
     6    30    24 ar
     7    27    26 ar
     8     7     9 1
     9     7     6 1
    10     2     3 1
    11     2     4 1
    12    24    23 1
    13    24    25 ar
    14     4     5 1
    15    26    25 ar
    16     5     6 1
    17    23    21 1
    18     6    10 1
    19    21    20 1
    20    21    22 2
    21    12    11 2
    22    10    11 1
    23    20    19 1
    24    11    13 1
    25    18    19 1
    26    18    14 1
    27    13    14 1
    28    14    15 1
    29    15    17 1
    30    15    16 1
    31     4    31 1
    32     4    32 1
    33     5    33 1
    34     5    34 1
    35     6    35 1
    36    10    36 1
    37    13    37 1
    38    14    38 1
    39    18    39 1
    40    18    40 1
    41    19    41 1
    42    19    42 1
    43    20    43 1
    44    20    44 1
    45    23    45 1
    46    25    46 1
    47    26    47 1
    48    29    48 1
    49    30    49 1
@<TRIPOS>SUBSTRUCTURE
     1 FVZ         1 TEMP              0 ****  ****    0 ROOT
