@<TRIPOS>MOLECULE
FW1
   65    67     1     0     0
SMALL
bcc


@<TRIPOS>ATOM
      1 CAA         0.5180    0.2030    0.0010 c3        1 FW1     -0.078700
      2 CAB         1.4090    0.9060    1.0220 c3        1 FW1     -0.032500
      3 CAC         2.0270    0.0110    2.0540 c2        1 FW1     -0.105400
      4 CAD         1.4640   -0.4650    3.1690 c2        1 FW1     -0.178200
      5 CAE         0.1020   -0.2250    3.7280 c3        1 FW1     -0.007600
      6 CAF        -0.8370    0.5890    2.8480 c2        1 FW1     -0.138400
      7 CAG        -1.4850   -0.0620    1.6730 c3        1 FW1      0.159300
      8 CAH        -0.5900   -0.6880    0.5780 c3        1 FW1      0.121100
      9 CAI         0.2500    0.6520    5.0270 c3        1 FW1      0.145100
     10 CAJ        -0.3540    2.0200    4.6750 c3        1 FW1     -0.089200
     11 CAK        -1.0800    1.8130    3.3780 c2        1 FW1     -0.104400
     12 CAL         2.6000    1.6160    0.3590 c3        1 FW1     -0.078400
     13 CAM         3.8130    0.7190    0.5650 c3        1 FW1     -0.072400
     14 CAN         3.4950   -0.1810    1.7620 c3        1 FW1     -0.038500
     15 CAO        -0.5350   -1.5540    4.1130 c3        1 FW1     -0.093100
     16 CAP         3.8490   -1.6440    1.5230 c3        1 FW1      0.135400
     17 CAQ         1.2960   -0.6200   -1.0090 c3        1 FW1     -0.089100
     18 OAR        -0.1470   -1.9740    0.9560 oh        1 FW1     -0.595800
     19 OAS         5.2170   -1.8000    1.8990 os        1 FW1     -0.424600
     20 CAT        -1.9150    2.9190    2.8420 c3        1 FW1     -0.036500
     21 CAU        -1.1050    3.7940    1.9010 c3        1 FW1     -0.087100
     22 CAV        -2.4920    3.7670    3.9770 c3        1 FW1      0.143400
     23 OAW        -2.4250    0.7760    1.0150 oh        1 FW1     -0.591800
     24 OAX        -3.4800    4.6210    3.3720 os        1 FW1     -0.445900
     25 OAY         1.5640    0.7530    5.5210 oh        1 FW1     -0.586800
     26 CAZ         5.6820   -3.1260    1.7180 c3        1 FW1      0.115700
     27 CBA        -4.1790    5.4380    4.2180 c         1 FW1      0.633100
     28 CBB        -5.1940    6.2710    3.5160 c3        1 FW1     -0.150100
     29 OBC        -3.9100    5.4020    5.4200 o         1 FW1     -0.544000
     30 HAA        -0.0100    1.0300   -0.5620 hc        1 FW1      0.045700
     31 HAB         0.7740    1.6840    1.5380 hc        1 FW1      0.067700
     32 HAD         2.0780   -1.0950    3.8440 ha        1 FW1      0.139000
     33 HAG        -2.1300   -0.9030    2.0840 h1        1 FW1      0.098700
     34 HAH        -1.3010   -0.9150   -0.2810 h1        1 FW1      0.080700
     35 HAI        -0.3160    0.1720    5.8740 h1        1 FW1      0.085700
     36 HAJ        -1.0460    2.3560    5.4870 hc        1 FW1      0.064700
     37 HAJA        0.4440    2.7980    4.5620 hc        1 FW1      0.064700
     38 HAL         2.7650    2.6030    0.8630 hc        1 FW1      0.045700
     39 HALA        2.4150    1.8210   -0.7220 hc        1 FW1      0.045700
     40 HAM         4.0000    0.1040   -0.3520 hc        1 FW1      0.050200
     41 HAMA        4.7340    1.3220    0.7600 hc        1 FW1      0.050200
     42 HAN         4.0870    0.1700    2.6550 hc        1 FW1      0.079700
     43 HAO        -0.6290   -2.2240    3.2240 hc        1 FW1      0.048033
     44 HAOA       -1.5540   -1.3820    4.5360 hc        1 FW1      0.048033
     45 HAOB        0.0920   -2.0650    4.8830 hc        1 FW1      0.048033
     46 HAP         3.2100   -2.3140    2.1610 h1        1 FW1      0.031700
     47 HAPA        3.7210   -1.9360    0.4470 h1        1 FW1      0.031700
     48 HAQ         1.9550    0.0250   -1.6360 hc        1 FW1      0.040700
     49 HAQA        0.5910   -1.1650   -1.6830 hc        1 FW1      0.040700
     50 HAQB        1.9300   -1.3750   -0.4830 hc        1 FW1      0.040700
     51 HOAR        0.6430   -1.8720    1.5040 ho        1 FW1      0.410000
     52 HAT        -2.7990    2.4950    2.2800 hc        1 FW1      0.095700
     53 HAU        -0.2010    4.1960    2.4190 hc        1 FW1      0.038700
     54 HAUA       -1.7310    4.6520    1.5550 hc        1 FW1      0.038700
     55 HAUB       -0.7710    3.2090    1.0100 hc        1 FW1      0.038700
     56 HAV        -1.7120    4.4080    4.4620 h1        1 FW1      0.055700
     57 HAVA       -2.9950    3.1310    4.7510 h1        1 FW1      0.055700
     58 HOAW       -1.9280    1.4830    0.5850 ho        1 FW1      0.399000
     59 HOAY        2.1080    1.1710    4.8400 ho        1 FW1      0.404000
     60 HAZ         5.6160   -3.4240    0.6420 h1        1 FW1      0.033700
     61 HAZA        5.0930   -3.8400    2.3460 h1        1 FW1      0.033700
     62 HAZB        6.7490   -3.0960    2.0520 h1        1 FW1      0.033700
     63 HBB        -6.2070    6.0100    3.9080 hc        1 FW1      0.076367
     64 HBBA       -5.1650    6.0940    2.4140 hc        1 FW1      0.076367
     65 HBBB       -4.9860    7.3480    3.7270 hc        1 FW1      0.076367
@<TRIPOS>BOND
     1    1    2 1
     2    1    8 1
     3    1   17 1
     4    1   30 1
     5    2    3 1
     6    2   12 1
     7    2   31 1
     8    3    4 2
     9    3   14 1
    10    4    5 1
    11    4   32 1
    12    5    6 1
    13    5    9 1
    14    5   15 1
    15    6    7 1
    16    6   11 2
    17    7    8 1
    18    7   23 1
    19    7   33 1
    20    8   18 1
    21    8   34 1
    22    9   10 1
    23    9   25 1
    24    9   35 1
    25   10   11 1
    26   10   36 1
    27   10   37 1
    28   11   20 1
    29   12   13 1
    30   12   38 1
    31   12   39 1
    32   13   14 1
    33   13   40 1
    34   13   41 1
    35   14   16 1
    36   14   42 1
    37   15   43 1
    38   15   44 1
    39   15   45 1
    40   16   19 1
    41   16   46 1
    42   16   47 1
    43   17   48 1
    44   17   49 1
    45   17   50 1
    46   18   51 1
    47   19   26 1
    48   20   21 1
    49   20   22 1
    50   20   52 1
    51   21   53 1
    52   21   54 1
    53   21   55 1
    54   22   24 1
    55   22   56 1
    56   22   57 1
    57   23   58 1
    58   24   27 1
    59   25   59 1
    60   26   60 1
    61   26   61 1
    62   26   62 1
    63   27   28 1
    64   27   29 2
    65   28   63 1
    66   28   64 1
    67   28   65 1
@<TRIPOS>SUBSTRUCTURE
     1 FW1         1 TEMP              0 ****  ****    0 ROOT
