@<TRIPOS>MOLECULE
FW4
   48    51     1     0     0
SMALL
bcc


@<TRIPOS>ATOM
      1 C10          0.0000     0.0000     0.0000 c3         1 FW4       0.063200
      2 C13          3.7200     0.0000     0.6470 ca         1 FW4      -0.038000
      3 C21          6.7270    -1.1570     6.6690 c3         1 FW4       0.144300
      4 C22          5.9730    -1.1450     5.3380 c3         1 FW4       0.147800
      5 C24          0.3200    -3.3900     5.4190 ca         1 FW4      -0.123000
      6 C02          2.1970    -3.4060     6.9130 ca         1 FW4      -0.079600
      7 C03          2.4860    -2.1010     6.5610 ca         1 FW4      -0.056000
      8 C04          1.6940    -1.4420     5.6390 ca         1 FW4      -0.132300
      9 N06          2.9230    -0.0140     4.1090 na         1 FW4       0.325700
     10 C07          2.5620    -0.0090     2.7720 ca         1 FW4      -0.257200
     11 C08          1.3470    -0.0100     2.1040 ca         1 FW4      -0.093000
     12 C09          1.3220     0.0010     0.7250 ca         1 FW4      -0.074300
     13 C11          2.5050     0.0000     0.0000 ca         1 FW4      -0.104300
     14 C12          2.4590    -0.0010    -1.5070 c3         1 FW4       0.065200
     15 C14          3.7630    -0.0050     2.0430 ca         1 FW4       0.072400
     16 N15          4.7790    -0.0060     2.9460 nc         1 FW4      -0.544100
     17 C16          4.2870    -0.0110     4.1600 cd         1 FW4       0.307700
     18 N17          5.0370    -0.0120     5.3180 nh         1 FW4      -0.454600
     19 C18          5.7520     1.2600     5.4850 c3         1 FW4       0.147800
     20 C19          6.5070     1.2490     6.8160 c3         1 FW4       0.144300
     21 N20          7.4420     0.1160     6.8360 n7         1 FW4      -0.579200
     22 C23          0.6120    -2.0860     5.0690 ca         1 FW4      -0.057000
     23 C25          1.1120    -4.0520     6.3410 ca         1 FW4       0.121900
     24 F26          0.8270    -5.3280     6.6850 f          1 FW4      -0.119900
     25 H1          -0.0860    -0.9020    -0.5930 hc         1 FW4       0.008033
     26 H2          -0.8070     0.0360     0.7210 hc         1 FW4       0.008033
     27 H3          -0.0570     0.8660    -0.6490 hc         1 FW4       0.008033
     28 H4           4.6410    -0.0010     0.0750 ha         1 FW4       0.115000
     29 H5           7.4400    -1.9730     6.6720 h1         1 FW4       0.009700
     30 H6           6.0220    -1.2830     7.4820 h1         1 FW4       0.009700
     31 H7           5.4200    -2.0710     5.2290 h1         1 FW4       0.028700
     32 H8           6.6800    -1.0420     4.5240 h1         1 FW4       0.028700
     33 H9          -0.5280    -3.8940     4.9710 ha         1 FW4       0.125000
     34 H10          3.2950    -1.5740     7.0540 ha         1 FW4       0.132000
     35 H11          2.4800     0.4850     6.0920 h1         1 FW4       0.042700
     36 H12          1.0960     0.4960     4.9900 h1         1 FW4       0.042700
     37 H13          0.4220     0.0650     2.6620 ha         1 FW4       0.103000
     38 H14          1.9490     0.8890    -1.8530 hc         1 FW4       0.008033
     39 H15          1.9270    -0.8800    -1.8510 hc         1 FW4       0.008033
     40 H16          3.4690    -0.0140    -1.8990 hc         1 FW4       0.008033
     41 H17          6.4580     1.3860     4.6720 h1         1 FW4       0.028700
     42 H18          5.0400     2.0770     5.4820 h1         1 FW4       0.028700
     43 H19          5.7990     1.1460     7.6300 h1         1 FW4       0.009700
     44 H20          7.0590     2.1740     6.9250 h1         1 FW4       0.009700
     45 H21          7.9390     0.1080     7.7050 hn         1 FW4       0.253800
     46 H23         -0.0070    -1.5670     4.3470 ha         1 FW4       0.114000
     47 C05          2.0110    -0.0190     5.2550 c3         1 FW4       0.029600
     48 Cl1          3.1900    -4.2350     8.0700 cl         1 FW4       0.010600
@<TRIPOS>BOND
     1     1    12 1   
     2     1    25 1   
     3     1    26 1   
     4     1    27 1   
     5     2    13 ar  
     6     2    15 ar  
     7     2    28 1   
     8     3     4 1   
     9     3    21 1   
    10     3    29 1   
    11     3    30 1   
    12     4    18 1   
    13     4    31 1   
    14     4    32 1   
    15     5    22 ar  
    16     5    23 ar  
    17     5    33 1   
    18     6     7 ar  
    19     6    23 ar  
    20     6    48 1   
    21     7     8 ar  
    22     7    34 1   
    23     8    22 ar  
    24     8    47 1   
    25     9    10 1   
    26     9    17 1   
    27     9    47 1   
    28    10    11 ar  
    29    10    15 ar  
    30    11    12 ar  
    31    11    37 1   
    32    12    13 ar  
    33    13    14 1   
    34    14    38 1   
    35    14    39 1   
    36    14    40 1   
    37    15    16 1   
    38    16    17 2   
    39    17    18 1   
    40    18    19 1   
    41    19    20 1   
    42    19    41 1   
    43    19    42 1   
    44    20    21 1   
    45    20    43 1   
    46    20    44 1   
    47    21    45 1   
    48    22    46 1   
    49    23    24 1   
    50    35    47 1   
    51    36    47 1   
@<TRIPOS>SUBSTRUCTURE
     1 FW4         1 TEMP              0 ****  ****    0 ROOT
