@<TRIPOS>MOLECULE
molecule
   48    51     1     0     0
SMALL
bcc


@<TRIPOS>ATOM
      1 C10          0.0000     0.0000     0.0000 c3         1 FW4      -0.042800
      2 C13          3.7200     0.0000     0.6470 ca         1 FW4      -0.069000
      3 C21          6.7270    -1.1570     6.6690 c3         1 FW4       0.155300
      4 C22          5.9730    -1.1450     5.3380 c3         1 FW4       0.174800
      5 C24          0.3200    -3.3900     5.4190 ca         1 FW4      -0.161000
      6 C02          2.1970    -3.4060     6.9130 ca         1 FW4      -0.020600
      7 C03          2.4860    -2.1010     6.5610 ca         1 FW4      -0.075000
      8 C04          1.6940    -1.4420     5.6390 ca         1 FW4      -0.125300
      9 N06          2.9230    -0.0140     4.1090 na         1 FW4      -0.141300
     10 C07          2.5620    -0.0090     2.7720 ca         1 FW4      -0.087200
     11 C08          1.3470    -0.0100     2.1040 ca         1 FW4      -0.128000
     12 C09          1.3220     0.0010     0.7250 ca         1 FW4      -0.067300
     13 C11          2.5050     0.0000     0.0000 ca         1 FW4      -0.098300
     14 C12          2.4590    -0.0010    -1.5070 c3         1 FW4      -0.040800
     15 C14          3.7630    -0.0050     2.0430 ca         1 FW4       0.098400
     16 N15          4.7790    -0.0060     2.9460 nc         1 FW4      -0.626100
     17 C16          4.2870    -0.0110     4.1600 cd         1 FW4       0.577700
     18 N17          5.0370    -0.0120     5.3180 nh         1 FW4      -0.678600
     19 C18          5.7520     1.2600     5.4850 c3         1 FW4       0.174800
     20 C19          6.5070     1.2490     6.8160 c3         1 FW4       0.155300
     21 N20          7.4420     0.1160     6.8360 n7         1 FW4      -0.818200
     22 C23          0.6120    -2.0860     5.0690 ca         1 FW4      -0.083000
     23 C25          1.1120    -4.0520     6.3410 ca         1 FW4       0.150900
     24 F26          0.8270    -5.3280     6.6850 f          1 FW4      -0.125900
     25 H1          -0.0860    -0.9020    -0.5930 hc         1 FW4       0.042700
     26 H2          -0.8070     0.0360     0.7210 hc         1 FW4       0.042700
     27 H3          -0.0570     0.8660    -0.6490 hc         1 FW4       0.042700
     28 H4           4.6410    -0.0010     0.0750 ha         1 FW4       0.144000
     29 H5           7.4400    -1.9730     6.6720 h1         1 FW4       0.040200
     30 H6           6.0220    -1.2830     7.4820 h1         1 FW4       0.040200
     31 H7           5.4200    -2.0710     5.2290 h1         1 FW4       0.059450
     32 H8           6.6800    -1.0420     4.5240 h1         1 FW4       0.059450
     33 H9          -0.5280    -3.8940     4.9710 ha         1 FW4       0.154000
     34 H10          3.2950    -1.5740     7.0540 ha         1 FW4       0.161000
     35 H11          2.4800     0.4850     6.0920 h1         1 FW4       0.072200
     36 H12          1.0960     0.4960     4.9900 h1         1 FW4       0.072200
     37 H13          0.4220     0.0650     2.6620 ha         1 FW4       0.123000
     38 H14          1.9490     0.8890    -1.8530 hc         1 FW4       0.042033
     39 H15          1.9270    -0.8800    -1.8510 hc         1 FW4       0.042033
     40 H16          3.4690    -0.0140    -1.8990 hc         1 FW4       0.042033
     41 H17          6.4580     1.3860     4.6720 h1         1 FW4       0.059450
     42 H18          5.0400     2.0770     5.4820 h1         1 FW4       0.059450
     43 H19          5.7990     1.1460     7.6300 h1         1 FW4       0.040200
     44 H20          7.0590     2.1740     6.9250 h1         1 FW4       0.040200
     45 H21          7.9390     0.1080     7.7050 hn         1 FW4       0.356800
     46 H23         -0.0070    -1.5670     4.3470 ha         1 FW4       0.142000
     47 C05          2.0110    -0.0190     5.2550 c3         1 FW4       0.107600
     48 Cl1          3.1900    -4.2350     8.0700 cl         1 FW4      -0.085400
@<TRIPOS>BOND
     1     3    21 1
     2     3     4 1
     3    21    20 1
     4    24    23 1
     5     5    23 ar
     6     5    22 ar
     7    20    19 1
     8    23     6 ar
     9    22     8 ar
    10     4    18 1
    11    19    18 1
    12     6    48 1
    13     6     7 ar
    14    18    17 1
    15     8     7 ar
    16     8    47 1
    17    47     9 1
    18    17     9 1
    19    17    16 2
    20     9    10 1
    21    16    15 1
    22    10    15 ar
    23    10    11 ar
    24    15     2 ar
    25    11    12 ar
    26     2    13 ar
    27    12    13 ar
    28    12     1 1
    29    13    14 1
    30     1    25 1
    31     1    26 1
    32     1    27 1
    33     2    28 1
    34     3    29 1
    35     3    30 1
    36     4    31 1
    37     4    32 1
    38     5    33 1
    39     7    34 1
    40    47    35 1
    41    47    36 1
    42    11    37 1
    43    14    38 1
    44    14    39 1
    45    14    40 1
    46    19    41 1
    47    19    42 1
    48    20    43 1
    49    20    44 1
    50    21    45 1
    51    22    46 1
@<TRIPOS>SUBSTRUCTURE
     1 FW4         1 TEMP              0 ****  ****    0 ROOT
