@<TRIPOS>MOLECULE
molecule
   17    16     1     0     0
SMALL
bcc


@<TRIPOS>ATOM
      1 C            0.0000     0.0000     0.0000 c3         1 FW5       0.130700
      2 O            1.4290     0.0000     0.0000 os         1 FW5      -0.423600
      3 C1           2.0100     0.0000     1.3050 c3         1 FW5       0.129400
      4 C2           3.5350     0.0010     1.1850 c3         1 FW5       0.154100
      5 C3           4.1570    -0.1250     2.5770 c3         1 FW5       0.126400
      6 O1           3.9650     1.2210     0.5800 oh         1 FW5      -0.591800
      7 O2           5.5760    -0.2420     2.4570 oh         1 FW5      -0.606800
      8 H1          -0.3610    -0.9070     0.4700 h1         1 FW5       0.030367
      9 H2          -0.3610     0.8610     0.5500 h1         1 FW5       0.030367
     10 H3          -0.3610     0.0460    -1.0200 h1         1 FW5       0.030367
     11 H4           1.6910    -0.8850     1.8430 h1         1 FW5       0.031700
     12 H5           1.6900     0.8840     1.8430 h1         1 FW5       0.031700
     13 H6           3.8490    -0.8360     0.5730 h1         1 FW5       0.053700
     14 H7           3.9160     0.7560     3.1610 h1         1 FW5       0.028700
     15 H8           3.7620    -1.0040     3.0710 h1         1 FW5       0.028700
     16 H9           4.5060     1.0280    -0.1680 ho         1 FW5       0.412000
     17 H10          5.9510    -0.4030     3.3070 ho         1 FW5       0.405000
@<TRIPOS>BOND
     1     1     2 1
     2     2     3 1
     3     6     4 1
     4     3     4 1
     5     4     5 1
     6     5     7 1
     7     1     8 1
     8     1     9 1
     9     1    10 1
    10     3    11 1
    11     3    12 1
    12     4    13 1
    13     5    14 1
    14     5    15 1
    15     6    16 1
    16     7    17 1
@<TRIPOS>SUBSTRUCTURE
     1 FW5         1 TEMP              0 ****  ****    0 ROOT
