@<TRIPOS>MOLECULE
FW7
   42    45     1     0     0
SMALL
bcc


@<TRIPOS>ATOM
      1 C4           0.0000     0.0000     0.0000 ca         1 FW7      -0.053000
      2 C5           1.3820     0.0000     0.0000 ca         1 FW7      -0.135300
      3 C6           2.1340     0.0000    -1.3060 c3         1 FW7       0.023600
      4 C8           1.4470     2.0020    -2.6860 cc         1 FW7       0.321700
      5 C10          2.9750     3.4620    -2.1440 ca         1 FW7       0.081400
      6 C13          5.1520     3.3370    -0.4290 ca         1 FW7      -0.024600
      7 C15          4.3400     2.2300    -0.5750 ca         1 FW7      -0.088000
      8 C21         -1.7780     1.7850    -4.4520 c3         1 FW7       0.144300
      9 C22         -0.5330     2.4550    -3.8650 c3         1 FW7       0.143800
     10 C24          1.3870    -0.0000     2.3940 ca         1 FW7      -0.078600
     11 C11          3.8060     4.5730    -1.9840 ca         1 FW7      -0.032000
     12 C12          4.8840     4.5040    -1.1310 ca         1 FW7      -0.115000
     13 C16          3.2490     2.2840    -1.4310 ca         1 FW7      -0.249200
     14 C18          0.7540     0.4530    -4.3090 c3         1 FW7       0.143800
     15 C19         -0.4910    -0.2170    -4.8960 c3         1 FW7       0.144300
     16 C2          -0.0000     0.0110     2.3960 ca         1 FW7       0.123900
     17 C23          2.0760     0.0000     1.1950 ca         1 FW7      -0.057000
     18 C3          -0.6910     0.0050     1.1970 ca         1 FW7      -0.124000
     19 F1          -0.6750     0.0220     3.5660 f          1 FW7      -0.118900
     20 N17          0.3460     1.4280    -3.2880 nh         1 FW7      -0.434600
     21 N20         -1.3720     0.8090    -5.4720 n7         1 FW7      -0.580200
     22 N7           2.2680     1.3760    -1.7930 na         1 FW7       0.311700
     23 N9           1.8640     3.2270    -2.8920 nd         1 FW7      -0.558100
     24 Cl25         2.2560     0.0000     3.8970 cl         1 FW7       0.014600
     25 H1          -0.5420    -0.0050    -0.9380 ha         1 FW7       0.123000
     26 H2           3.1190    -0.4270    -1.1560 h1         1 FW7       0.043700
     27 H3           1.5920    -0.5890    -2.0360 h1         1 FW7       0.043700
     28 H4           4.5540     1.3230    -0.0250 ha         1 FW7       0.111000
     29 H5          -2.4120     2.5370    -4.9050 h1         1 FW7       0.011450
     30 H6          -2.3180     1.2760    -3.6630 h1         1 FW7       0.011450
     31 H7          -0.0040     2.9820    -4.6500 h1         1 FW7       0.030450
     32 H8          -0.8300     3.1510    -3.0900 h1         1 FW7       0.030450
     33 H9           3.6020     5.4860    -2.5290 ha         1 FW7       0.114000
     34 H10          5.5290     5.3660    -1.0070 ha         1 FW7       0.117000
     35 H11          1.3880    -0.3000    -3.8560 h1         1 FW7       0.030450
     36 H12          1.2940     0.9620    -5.0980 h1         1 FW7       0.030450
     37 H13         -1.0190    -0.7460    -4.1110 h1         1 FW7       0.011450
     38 H14         -0.1940    -0.9130    -5.6710 h1         1 FW7       0.011450
     39 H15          3.1590    -0.0040     1.1930 ha         1 FW7       0.122000
     40 H16         -1.7750     0.0090     1.1970 ha         1 FW7       0.125000
     41 H17         -2.1850     0.3730    -5.8590 hn         1 FW7       0.255800
     42 Cl14         6.5170     3.2690     0.6430 cl         1 FW7      -0.030400
@<TRIPOS>BOND
     1     1     2 ar  
     2     1    18 ar  
     3     1    25 1   
     4     2     3 1   
     5     2    17 ar  
     6     3    22 1   
     7     3    26 1   
     8     3    27 1   
     9     4    20 1   
    10     4    22 1   
    11     4    23 2   
    12     5    11 ar  
    13     5    13 ar  
    14     5    23 1   
    15     6     7 ar  
    16     6    12 ar  
    17     6    42 1   
    18     7    13 ar  
    19     7    28 1   
    20     8     9 1   
    21     8    21 1   
    22     8    29 1   
    23     8    30 1   
    24     9    20 1   
    25     9    31 1   
    26     9    32 1   
    27    10    16 ar  
    28    10    17 ar  
    29    10    24 1   
    30    11    12 ar  
    31    11    33 1   
    32    12    34 1   
    33    13    22 1   
    34    14    15 1   
    35    14    20 1   
    36    14    35 1   
    37    14    36 1   
    38    15    21 1   
    39    15    37 1   
    40    15    38 1   
    41    16    18 ar  
    42    16    19 1   
    43    17    39 1   
    44    18    40 1   
    45    21    41 1   
@<TRIPOS>SUBSTRUCTURE
     1 FW7         1 TEMP              0 ****  ****    0 ROOT
