@<TRIPOS>MOLECULE
FWA
   66    71     1     0     0
SMALL
bcc


@<TRIPOS>ATOM
      1 N1           0.0000     0.0000     0.0000 nh         1 FWA      -0.391000
      2 N3          -3.1850     4.1180    -1.5000 nn         1 FWA      -0.454600
      3 C4          -0.0170    -1.1800     2.1450 c3         1 FWA       0.153800
      4 C5          -0.5010     0.0720    -1.3040 ca         1 FWA       0.082600
      5 C6          -0.1920    -0.9150    -2.2220 ca         1 FWA      -0.154000
      6 C7          -0.6850    -0.8490    -3.5170 ca         1 FWA      -0.016600
      7 C8          -1.4910     0.2030    -3.9050 ca         1 FWA      -0.090000
      8 C10         -1.3230     1.1410    -1.6840 ca         1 FWA       0.096400
      9 C13         -2.7990     5.8220    -0.4290 cy         1 FWA      -0.147000
     10 C15         -3.8650     6.9100    -0.3210 cy         1 FWA       0.150800
     11 C20         -7.0240     2.7450    -3.6040 ca         1 FWA      -0.112300
     12 C21         -8.0920     3.6330    -3.0200 c3         1 FWA       0.065700
     13 C22         -7.3570     1.4940    -4.0950 ca         1 FWA       0.113900
     14 N            1.4530    -1.1800     2.1450 n3         1 FWA      -0.550600
     15 C            1.9780    -1.2560     3.5150 c3         1 FWA       0.189100
     16 C1           1.9760     0.0000     1.4440 c3         1 FWA       0.153800
     17 C11         -2.5410     2.9450    -1.8380 cc         1 FWA       0.312700
     18 C12         -3.0970     4.3720    -0.0440 cy         1 FWA       0.157300
     19 C14         -1.9020     6.7080     0.4350 cy         1 FWA       0.150800
     20 C16         -2.3300     5.2950    -1.7850 cy         1 FWA       0.157300
     21 C18         -4.7350     2.3660    -4.1900 ca         1 FWA      -0.138300
     22 C19         -5.7140     3.1800    -3.6540 ca         1 FWA      -0.062000
     23 C2           1.4700     0.0000     0.0000 c3         1 FWA       0.147800
     24 C23         -6.3740     0.6780    -4.6310 ca         1 FWA      -0.112300
     25 C25         -5.0640     1.1130    -4.6760 ca         1 FWA      -0.062000
     26 C3          -0.5250    -1.1810     0.7000 c3         1 FWA       0.147800
     27 C9          -1.8130     1.2030    -2.9970 ca         1 FWA      -0.246200
     28 N2          -1.7990     2.2340    -1.0280 nd         1 FWA      -0.538100
     29 N4          -2.7400     7.8330    -0.0420 n6         1 FWA      -0.582200
     30 N5          -2.5820     2.3520    -3.0690 na         1 FWA       0.319700
     31 Cl          -0.2860    -2.0950    -4.6570 cl         1 FWA      -0.028400
     32 H1          -0.3770    -0.2940     2.6530 h1         1 FWA       0.014950
     33 H2          -0.3770    -2.0660     2.6530 h1         1 FWA       0.014950
     34 H3           0.4390    -1.7450    -1.9280 ha         1 FWA       0.129000
     35 H4          -1.8720     0.2480    -4.9180 ha         1 FWA       0.112000
     36 H5          -4.5280     6.7770     0.5250 h1         1 FWA       0.028700
     37 H6          -4.3610     7.1160    -1.2620 h1         1 FWA       0.028700
     38 H7          -3.2860     3.9250    -4.2560 h1         1 FWA       0.039700
     39 H8          -2.8330     2.4640    -5.1430 h1         1 FWA       0.039700
     40 H9          -7.7980     4.6700    -3.1310 hc         1 FWA       0.013533
     41 H10         -8.2180     3.4040    -1.9690 hc         1 FWA       0.013533
     42 H11         -9.0260     3.4650    -3.5420 hc         1 FWA       0.013533
     43 H12         -7.6370    -0.6110    -5.7620 hc         1 FWA       0.013533
     44 H13         -6.9030    -1.3640    -4.3400 hc         1 FWA       0.013533
     45 H14         -5.9250    -1.0570    -5.7820 hc         1 FWA       0.013533
     46 H16          3.0610    -1.2900     3.4850 h1         1 FWA      -0.000300
     47 H17          1.6020    -2.1500     3.9970 h1         1 FWA      -0.000300
     48 H18          1.6600    -0.3830     4.0730 h1         1 FWA      -0.000300
     49 H19          1.6350     0.8980     1.9450 h1         1 FWA       0.014950
     50 H20          3.0590    -0.0310     1.4450 h1         1 FWA       0.014950
     51 H21         -4.0450     4.2530     0.4680 h1         1 FWA       0.045700
     52 H22         -2.2580     3.8740     0.4270 h1         1 FWA       0.045700
     53 H23         -0.8800     6.7560     0.0790 h1         1 FWA       0.028700
     54 H24         -2.0080     6.5170     1.4960 h1         1 FWA       0.028700
     55 H25         -2.6850     5.8880    -2.6190 h1         1 FWA       0.045700
     56 H26         -1.2730     5.0580    -1.8090 h1         1 FWA       0.045700
     57 H27         -5.4640     4.1810    -3.3240 ha         1 FWA       0.118500
     58 H28          1.8300    -0.8860    -0.5080 h1         1 FWA       0.018200
     59 H29          1.8300     0.8860    -0.5080 h1         1 FWA       0.018200
     60 H30         -4.2950     0.4750    -5.0950 ha         1 FWA       0.118500
     61 H31         -0.1830    -2.0780     0.1990 h1         1 FWA       0.018200
     62 H32         -1.6070    -1.1490     0.6990 h1         1 FWA       0.018200
     63 H33         -2.9770     8.4240     0.7310 hn         1 FWA       0.245800
     64 C17         -3.3050     2.8420    -4.2450 c3         1 FWA       0.031600
     65 F           -8.6380     1.0680    -4.0500 f          1 FWA      -0.124900
     66 C24         -6.7350    -0.6840    -5.1660 c3         1 FWA       0.065700
@<TRIPOS>BOND
     1     1     4 1   
     2     1    23 1   
     3     1    26 1   
     4     2    17 1   
     5     2    18 1   
     6     2    20 1   
     7     3    14 1   
     8     3    26 1   
     9     3    32 1   
    10     3    33 1   
    11     4     5 ar  
    12     4     8 ar  
    13     5     6 ar  
    14     5    34 1   
    15     6     7 ar  
    16     6    31 1   
    17     7    27 ar  
    18     7    35 1   
    19     8    27 ar  
    20     8    28 1   
    21     9    10 1   
    22     9    18 1   
    23     9    19 1   
    24     9    20 1   
    25    10    29 1   
    26    10    36 1   
    27    10    37 1   
    28    11    12 1   
    29    11    13 ar  
    30    11    22 ar  
    31    12    40 1   
    32    12    41 1   
    33    12    42 1   
    34    13    24 ar  
    35    13    65 1   
    36    14    15 1   
    37    14    16 1   
    38    15    46 1   
    39    15    47 1   
    40    15    48 1   
    41    16    23 1   
    42    16    49 1   
    43    16    50 1   
    44    17    28 2   
    45    17    30 1   
    46    18    51 1   
    47    18    52 1   
    48    19    29 1   
    49    19    53 1   
    50    19    54 1   
    51    20    55 1   
    52    20    56 1   
    53    21    22 ar  
    54    21    25 ar  
    55    21    64 1   
    56    22    57 1   
    57    23    58 1   
    58    23    59 1   
    59    24    25 ar  
    60    24    66 1   
    61    25    60 1   
    62    26    61 1   
    63    26    62 1   
    64    27    30 1   
    65    29    63 1   
    66    30    64 1   
    67    38    64 1   
    68    39    64 1   
    69    43    66 1   
    70    44    66 1   
    71    45    66 1   
@<TRIPOS>SUBSTRUCTURE
     1 FWA         1 TEMP              0 ****  ****    0 ROOT
