@<TRIPOS>MOLECULE
molecule
   66    71     1     0     0
SMALL
bcc


@<TRIPOS>ATOM
      1 N1           0.0000     0.0000     0.0000 nh         1 FWA      -0.605000
      2 N3          -3.1850     4.1180    -1.5000 nn         1 FWA      -0.614600
      3 C4          -0.0170    -1.1800     2.1450 c3         1 FWA       0.162300
      4 C5          -0.5010     0.0720    -1.3040 ca         1 FWA       0.148600
      5 C6          -0.1920    -0.9150    -2.2220 ca         1 FWA      -0.176000
      6 C7          -0.6850    -0.8490    -3.5170 ca         1 FWA       0.045400
      7 C8          -1.4910     0.2030    -3.9050 ca         1 FWA      -0.126000
      8 C10         -1.3230     1.1410    -1.6840 ca         1 FWA       0.126400
      9 C13         -2.7990     5.8220    -0.4290 cy         1 FWA      -0.136000
     10 C15         -3.8650     6.9100    -0.3210 cy         1 FWA       0.129800
     11 C20         -7.0240     2.7450    -3.6040 ca         1 FWA      -0.118300
     12 C21         -8.0920     3.6330    -3.0200 c3         1 FWA      -0.044800
     13 C22         -7.3570     1.4940    -4.0950 ca         1 FWA       0.139900
     14 N            1.4530    -1.1800     2.1450 n3         1 FWA      -0.735600
     15 C            1.9780    -1.2560     3.5150 c3         1 FWA       0.153100
     16 C1           1.9760     0.0000     1.4440 c3         1 FWA       0.162300
     17 C11         -2.5410     2.9450    -1.8380 cc         1 FWA       0.558700
     18 C12         -3.0970     4.3720    -0.0440 cy         1 FWA       0.153300
     19 C14         -1.9020     6.7080     0.4350 cy         1 FWA       0.129800
     20 C16         -2.3300     5.2950    -1.7850 cy         1 FWA       0.153300
     21 C18         -4.7350     2.3660    -4.1900 ca         1 FWA      -0.131300
     22 C19         -5.7140     3.1800    -3.6540 ca         1 FWA      -0.084000
     23 C2           1.4700     0.0000     0.0000 c3         1 FWA       0.169300
     24 C23         -6.3740     0.6780    -4.6310 ca         1 FWA      -0.118300
     25 C25         -5.0640     1.1130    -4.6760 ca         1 FWA      -0.084000
     26 C3          -0.5250    -1.1810     0.7000 c3         1 FWA       0.169300
     27 C9          -1.8130     1.2030    -2.9970 ca         1 FWA      -0.078200
     28 N2          -1.7990     2.2340    -1.0280 nd         1 FWA      -0.620100
     29 N4          -2.7400     7.8330    -0.0420 n6         1 FWA      -0.758200
     30 N5          -2.5820     2.3520    -3.0690 na         1 FWA      -0.142300
     31 Cl          -0.2860    -2.0950    -4.6570 cl         1 FWA      -0.107400
     32 H1          -0.3770    -0.2940     2.6530 h1         1 FWA       0.042700
     33 H2          -0.3770    -2.0660     2.6530 h1         1 FWA       0.042700
     34 H3           0.4390    -1.7450    -1.9280 ha         1 FWA       0.153000
     35 H4          -1.8720     0.2480    -4.9180 ha         1 FWA       0.138000
     36 H5          -4.5280     6.7770     0.5250 h1         1 FWA       0.061950
     37 H6          -4.3610     7.1160    -1.2620 h1         1 FWA       0.061950
     38 H7          -3.2860     3.9250    -4.2560 h1         1 FWA       0.068200
     39 H8          -2.8330     2.4640    -5.1430 h1         1 FWA       0.068200
     40 H9          -7.7980     4.6700    -3.1310 hc         1 FWA       0.048867
     41 H10         -8.2180     3.4040    -1.9690 hc         1 FWA       0.048867
     42 H11         -9.0260     3.4650    -3.5420 hc         1 FWA       0.048867
     43 H12         -7.6370    -0.6110    -5.7620 hc         1 FWA       0.048867
     44 H13         -6.9030    -1.3640    -4.3400 hc         1 FWA       0.048867
     45 H14         -5.9250    -1.0570    -5.7820 hc         1 FWA       0.048867
     46 H16          3.0610    -1.2900     3.4850 h1         1 FWA       0.031700
     47 H17          1.6020    -2.1500     3.9970 h1         1 FWA       0.031700
     48 H18          1.6600    -0.3830     4.0730 h1         1 FWA       0.031700
     49 H19          1.6350     0.8980     1.9450 h1         1 FWA       0.042700
     50 H20          3.0590    -0.0310     1.4450 h1         1 FWA       0.042700
     51 H21         -4.0450     4.2530     0.4680 h1         1 FWA       0.080450
     52 H22         -2.2580     3.8740     0.4270 h1         1 FWA       0.080450
     53 H23         -0.8800     6.7560     0.0790 h1         1 FWA       0.061950
     54 H24         -2.0080     6.5170     1.4960 h1         1 FWA       0.061950
     55 H25         -2.6850     5.8880    -2.6190 h1         1 FWA       0.080450
     56 H26         -1.2730     5.0580    -1.8090 h1         1 FWA       0.080450
     57 H27         -5.4640     4.1810    -3.3240 ha         1 FWA       0.142500
     58 H28          1.8300    -0.8860    -0.5080 h1         1 FWA       0.045950
     59 H29          1.8300     0.8860    -0.5080 h1         1 FWA       0.045950
     60 H30         -4.2950     0.4750    -5.0950 ha         1 FWA       0.142500
     61 H31         -0.1830    -2.0780     0.1990 h1         1 FWA       0.045950
     62 H32         -1.6070    -1.1490     0.6990 h1         1 FWA       0.045950
     63 H33         -2.9770     8.4240     0.7310 hn         1 FWA       0.329800
     64 C17         -3.3050     2.8420    -4.2450 c3         1 FWA       0.108600
     65 F           -8.6380     1.0680    -4.0500 f          1 FWA      -0.137900
     66 C24         -6.7350    -0.6840    -5.1660 c3         1 FWA      -0.044800
@<TRIPOS>BOND
     1    29    10 1
     2    29    19 1
     3    66    24 1
     4    10     9 1
     5    65    13 1
     6    19     9 1
     7    24    13 ar
     8    24    25 ar
     9    13    11 ar
    10     9    20 1
    11     9    18 1
    12    25    21 ar
    13    20     2 1
    14    11    12 1
    15    11    22 ar
    16    18     2 1
    17    21    22 ar
    18    21    64 1
    19     2    17 1
    20    64    30 1
    21    17    30 1
    22    17    28 2
    23    30    27 1
    24    28     8 1
    25    27     8 ar
    26    27     7 ar
    27     8     4 ar
    28     7     6 ar
    29    26     3 1
    30    26     1 1
    31     4     1 1
    32     4     5 ar
    33     3    14 1
    34     6     5 ar
    35     6    31 1
    36     1    23 1
    37    14    15 1
    38    14    16 1
    39    23    16 1
    40     3    32 1
    41     3    33 1
    42     5    34 1
    43     7    35 1
    44    10    36 1
    45    10    37 1
    46    64    38 1
    47    64    39 1
    48    12    40 1
    49    12    41 1
    50    12    42 1
    51    66    43 1
    52    66    44 1
    53    66    45 1
    54    15    46 1
    55    15    47 1
    56    15    48 1
    57    16    49 1
    58    16    50 1
    59    18    51 1
    60    18    52 1
    61    19    53 1
    62    19    54 1
    63    20    55 1
    64    20    56 1
    65    22    57 1
    66    23    58 1
    67    23    59 1
    68    25    60 1
    69    26    61 1
    70    26    62 1
    71    29    63 1
@<TRIPOS>SUBSTRUCTURE
     1 FWA         1 TEMP              0 ****  ****    0 ROOT
