@<TRIPOS>MOLECULE
FWB
   28    28     1     0     0
SMALL
bcc


@<TRIPOS>ATOM
      1 C4           0.0000     0.0000     0.0000 c3         1 FWB       0.641200
      2 C5           3.7760     0.0000     0.0000 ca         1 FWB      -0.156300
      3 C6           3.0170     0.0020     2.2740 ca         1 FWB       0.158100
      4 C10          4.0550     0.0000     1.3530 ca         1 FWB      -0.088000
      5 C13          5.2800    -1.4470    -1.3390 c3         1 FWB      -0.073500
      6 C1           1.4280    -0.0040     0.4790 ca         1 FWB      -0.165300
      7 C11          4.9030    -0.0040    -1.0000 c3         1 FWB       0.032900
      8 C14          6.5030    -1.4530    -2.2570 c3         1 FWB      -0.002100
      9 C2           2.4640    -0.0030    -0.4370 ca         1 FWB      -0.099000
     10 C3           1.7010     0.0070     1.8340 ca         1 FWB      -0.059000
     11 F7          -0.2260     1.1370    -0.7830 f          1 FWB      -0.198300
     12 F8          -0.2390    -1.1480    -0.7640 f          1 FWB      -0.198300
     13 F9          -0.8620     0.0140     1.1010 f          1 FWB      -0.198300
     14 N15          4.1540    -2.1010    -2.0190 nz         1 FWB       0.059400
     15 O12          3.2890     0.0020     3.6050 oh         1 FWB      -0.486100
     16 H1           5.0830    -0.0030     1.6950 ha         1 FWB       0.130000
     17 H2           5.5110    -1.9830    -0.4270 hx         1 FWB       0.095700
     18 H3           5.7620     0.5040    -0.5780 hc         1 FWB       0.057200
     19 H4           4.5880     0.5080    -1.9010 hc         1 FWB       0.057200
     20 H5           6.2630    -0.9440    -3.1830 hc         1 FWB       0.039367
     21 H6           7.3240    -0.9420    -1.7680 hc         1 FWB       0.039367
     22 H7           6.7900    -2.4750    -2.4700 hc         1 FWB       0.039367
     23 H8           2.2480    -0.0030    -1.4980 ha         1 FWB       0.105000
     24 H9           0.8890     0.0080     2.5510 ha         1 FWB       0.151000
     25 H10          3.7390    -1.4620    -2.6680 hn         1 FWB       0.229800
     26 H11          4.4850    -2.9070    -2.5110 hn         1 FWB       0.229800
     27 H13          3.2970     0.8890     3.9250 ho         1 FWB       0.427000
     28 H153         3.4670    -2.3710    -1.3430 hn         1 FWB       0.229800
@<TRIPOS>BOND
     1     1     6 1   
     2     1    11 1   
     3     1    12 1   
     4     1    13 1   
     5     2     4 ar  
     6     2     7 1   
     7     2     9 ar  
     8     3     4 ar  
     9     3    10 ar  
    10     3    15 1   
    11     4    16 1   
    12     5     7 1   
    13     5     8 1   
    14     5    14 1   
    15     5    17 1   
    16     6     9 ar  
    17     6    10 ar  
    18     7    18 1   
    19     7    19 1   
    20     8    20 1   
    21     8    21 1   
    22     8    22 1   
    23     9    23 1   
    24    10    24 1   
    25    14    25 1   
    26    14    26 1   
    27    14    28 1   
    28    15    27 1   
@<TRIPOS>SUBSTRUCTURE
     1 FWB         1 TEMP              0 ****  ****    0 ROOT
