@<TRIPOS>MOLECULE
molecule
   23    23     1     0     0
SMALL
bcc


@<TRIPOS>ATOM
      1 N1           0.0000     0.0000     0.0000 n          1 FWD      -0.386000
      2 C2           1.3460     0.0000     0.0000 c          1 FWD       0.790500
      3 O2           1.9440    -0.0000    -1.0580 o          1 FWD      -0.674500
      4 N3           2.0380     0.0000     1.1540 ns         1 FWD      -0.554500
      5 C4           1.3890     0.0000     2.3360 c          1 FWD       0.678700
      6 O4           2.0160     0.0020     3.3810 o          1 FWD      -0.569500
      7 C5          -0.0280     0.0010     2.3530 cc         1 FWD      -0.012700
      8 F5          -0.7000     0.0010     3.5240 f          1 FWD      -0.117500
      9 C6          -0.6980     0.0000     1.1790 cd         1 FWD      -0.024400
     10 C7          -0.7260     0.0060    -1.2730 c3         1 FWD       0.100000
     11 C8          -0.9790    -1.4350    -1.7220 c3         1 FWD      -0.033500
     12 N8           0.2960    -2.1610    -1.7780 nz         1 FWD      -0.790600
     13 C9          -1.6160    -1.4300    -3.0880 c          1 FWD       0.865600
     14 O91         -2.9310    -1.1950    -3.2140 o          1 FWD      -0.762300
     15 O92         -0.9420    -1.6390    -4.0690 o          1 FWD      -0.762300
     16 H3           3.0380    -0.0000     1.1350 hn         1 FWD       0.376500
     17 H6          -1.7820     0.0000     1.1710 h4         1 FWD       0.194000
     18 H71         -0.1370     0.5200    -2.0230 h1         1 FWD       0.118200
     19 H72         -1.6740     0.5160    -1.1460 h1         1 FWD       0.118200
     20 H8          -1.6410    -1.9230    -1.0160 hx         1 FWD       0.103700
     21 H81          0.9550    -1.6360    -2.3190 hn         1 FWD       0.447467
     22 H82          0.6510    -2.2860    -0.8500 hn         1 FWD       0.447467
     23 H83          0.1530    -3.0550    -2.2040 hn         1 FWD       0.447467
@<TRIPOS>BOND
     1     1     2 1
     2     1     9 1
     3     1    10 1
     4     2     3 2
     5     2     4 1
     6     4     5 1
     7     4    16 1
     8     5     6 2
     9     5     7 1
    10     7     8 1
    11     7     9 2
    12     9    17 1
    13    10    11 1
    14    10    18 1
    15    10    19 1
    16    11    12 1
    17    11    13 1
    18    11    20 1
    19    12    21 1
    20    12    22 1
    21    13    14 1
    22    13    15 1
    23    23    12 1
@<TRIPOS>SUBSTRUCTURE
     1 FWD         1 TEMP              0 ****  ****    0 ROOT
