@<TRIPOS>MOLECULE
molecule
   68    69     1     0     0
SMALL
bcc


@<TRIPOS>ATOM
      1 O3           0.0000     0.0000     0.0000 o          1 FWF      -0.629800
      2 S2           1.4210     0.0000     0.0000 s6         1 FWF       1.332900
      3 O4           2.1540     0.0000     1.2170 o          1 FWF      -0.629800
      4 C20          2.0580    -1.2710    -1.1270 c3         1 FWF      -0.213900
      5 N1           1.8290     1.4340    -0.7220 n7         1 FWF      -0.913600
      6 C15          1.2370     1.7990    -2.0120 c3         1 FWF       0.237300
      7 C14          1.4710     3.2870    -2.2770 c3         1 FWF      -0.033900
      8 C16          0.7160     4.1160    -1.2350 c3         1 FWF      -0.084600
      9 C1           0.9710     3.6370    -3.6550 ca         1 FWF      -0.083300
     10 C6          -0.3630     3.4500    -3.9710 ca         1 FWF      -0.121250
     11 C5          -0.8260     3.7680    -5.2320 ca         1 FWF      -0.117000
     12 C4           0.0530     4.2790    -6.1860 cp         1 FWF      -0.035000
     13 C3           1.3950     4.4660    -5.8610 ca         1 FWF      -0.117000
     14 C2           1.8460     4.1490    -4.5950 ca         1 FWF      -0.121250
     15 C10         -0.4400     4.6230    -7.5430 cp         1 FWF      -0.035000
     16 C9           0.4390     5.1320    -8.4970 ca         1 FWF      -0.117000
     17 C8          -0.0250     5.4500    -9.7580 ca         1 FWF      -0.121250
     18 C11         -1.7810     4.4290    -7.8710 ca         1 FWF      -0.117000
     19 C12         -2.2330     4.7490    -9.1350 ca         1 FWF      -0.121250
     20 C7          -1.3580     5.2620   -10.0760 ca         1 FWF      -0.083300
     21 C13         -1.8570     5.6120   -11.4530 c3         1 FWF      -0.033900
     22 C17         -1.6240     7.1000   -11.7190 c3         1 FWF      -0.084600
     23 C18         -1.1020     4.7830   -12.4950 c3         1 FWF       0.237300
     24 N2          -1.6690     5.0340   -13.8220 n7         1 FWF      -0.913600
     25 S1          -0.8350     4.5760   -15.1780 s6         1 FWF       1.332900
     26 O1          -1.6630     4.9940   -16.2560 o          1 FWF      -0.629800
     27 O2           0.4610     5.1250   -14.9940 o          1 FWF      -0.629800
     28 C19         -0.7780     2.7650   -15.0850 c3         1 FWF      -0.213900
     29 C21         -2.2050     2.2100   -15.0750 c3         1 FWF      -0.071100
     30 C22         -0.0250     2.2150   -16.2970 c3         1 FWF      -0.071100
     31 C23          3.5730    -1.1140    -1.2690 c3         1 FWF      -0.071100
     32 C24          1.7390    -2.6580    -0.5630 c3         1 FWF      -0.071100
     33 H1           1.5900    -1.1600    -2.0980 h1         1 FWF       0.097700
     34 H2           2.4920     2.0430    -0.2850 hn         1 FWF       0.455800
     35 H3           1.6980     1.2150    -2.7990 h1         1 FWF       0.048450
     36 H4           0.1730     1.5990    -1.9900 h1         1 FWF       0.048450
     37 H5           2.5310     3.5040    -2.2110 hc         1 FWF       0.057700
     38 H6           1.2920     4.1550    -0.3180 hc         1 FWF       0.042367
     39 H7           0.5680     5.1210    -1.6110 hc         1 FWF       0.042367
     40 H8          -0.2460     3.6590    -1.0380 hc         1 FWF       0.042367
     41 H9          -1.0440     3.0530    -3.2290 ha         1 FWF       0.134500
     42 H10         -1.8700     3.6210    -5.4800 ha         1 FWF       0.135000
     43 H11          2.0810     4.8650    -6.5980 ha         1 FWF       0.135000
     44 H12          2.8890     4.2940    -4.3410 ha         1 FWF       0.134500
     45 H13          1.4830     5.2800    -8.2490 ha         1 FWF       0.135000
     46 H14          0.6570     5.8490   -10.5000 ha         1 FWF       0.134500
     47 H15         -2.4670     4.0280    -7.1350 ha         1 FWF       0.135000
     48 H16         -3.2750     4.6020    -9.3890 ha         1 FWF       0.134500
     49 H17         -2.9170     5.3950   -11.5190 hc         1 FWF       0.057700
     50 H18         -2.2750     7.4300   -12.5190 hc         1 FWF       0.042367
     51 H19         -0.5910     7.2590   -12.0050 hc         1 FWF       0.042367
     52 H20         -1.8410     7.6650   -10.8210 hc         1 FWF       0.042367
     53 H21         -1.1950     3.7300   -12.2550 h1         1 FWF       0.048450
     54 H22         -0.0560     5.0630   -12.4900 h1         1 FWF       0.048450
     55 H23         -2.5730     5.4540   -13.9080 hn         1 FWF       0.455800
     56 H24         -0.2690     2.4660   -14.1770 h1         1 FWF       0.097700
     57 H25         -2.8040     2.7400   -15.8050 hc         1 FWF       0.049533
     58 H26         -2.1830     1.1550   -15.3240 hc         1 FWF       0.049533
     59 H27         -2.6360     2.3400   -14.0900 hc         1 FWF       0.049533
     60 H28          0.0470     1.1370   -16.2190 hc         1 FWF       0.049533
     61 H29          0.9700     2.6410   -16.3270 hc         1 FWF       0.049533
     62 H30         -0.5580     2.4770   -17.2030 hc         1 FWF       0.049533
     63 H31          4.0090    -0.9260    -0.2960 hc         1 FWF       0.049533
     64 H32          3.7890    -0.2830    -1.9290 hc         1 FWF       0.049533
     65 H33          3.9930    -2.0230    -1.6840 hc         1 FWF       0.049533
     66 H34          0.6690    -2.7540    -0.4230 hc         1 FWF       0.049533
     67 H35          2.0810    -3.4180    -1.2550 hc         1 FWF       0.049533
     68 H36          2.2400    -2.7850     0.3890 hc         1 FWF       0.049533
@<TRIPOS>BOND
     1    22    21 1
     2     8     7 1
     3    18    19 ar
     4    18    15 ar
     5    11    10 ar
     6    11    12 ar
     7    19    20 ar
     8    10     9 ar
     9    15    12 1
    10    15    16 ar
    11    12    13 ar
    12    20    21 1
    13    20    17 ar
    14     9     7 1
    15     9    14 ar
    16    21    23 1
    17    16    17 ar
    18    13    14 ar
    19     7     6 1
    20    23    24 1
    21     6     5 1
    22    24    25 1
    23    26    25 2
    24     5     2 1
    25     3     2 2
    26    25    28 1
    27    25    27 2
    28     2     4 1
    29     2     1 2
    30     4    31 1
    31     4    32 1
    32    28    29 1
    33    28    30 1
    34     4    33 1
    35     5    34 1
    36     6    35 1
    37     6    36 1
    38     7    37 1
    39     8    38 1
    40     8    39 1
    41     8    40 1
    42    10    41 1
    43    11    42 1
    44    13    43 1
    45    14    44 1
    46    16    45 1
    47    17    46 1
    48    18    47 1
    49    19    48 1
    50    21    49 1
    51    22    50 1
    52    22    51 1
    53    22    52 1
    54    23    53 1
    55    23    54 1
    56    24    55 1
    57    28    56 1
    58    29    57 1
    59    29    58 1
    60    29    59 1
    61    30    60 1
    62    30    61 1
    63    30    62 1
    64    31    63 1
    65    31    64 1
    66    31    65 1
    67    32    66 1
    68    32    67 1
    69    32    68 1
@<TRIPOS>SUBSTRUCTURE
     1 FWF         1 TEMP              0 ****  ****    0 ROOT
