@<TRIPOS>MOLECULE
FX1
   22    22     1     0     0
SMALL
bcc


@<TRIPOS>ATOM
      1 C1          1.5270   -0.0670    0.3630 c3        1 FX1      0.119400
      2 O1          1.8200    1.1670    0.9790 oh        1 FX1     -0.592800
      3 C2          0.1410   -0.0080   -0.2900 c3        1 FX1      0.256600
      4 O2         -0.8660    0.4220    0.5890 oh        1 FX1     -0.611800
      5 C3         -0.3200   -1.3320   -0.9500 c3        1 FX1      0.048100
      6 O3         -1.2040   -2.0780   -0.1610 oh        1 FX1     -0.551800
      7 C4         -0.9170   -0.8700   -2.2800 c         1 FX1      0.520100
      8 O4         -1.5240   -1.5690   -3.0810 o         1 FX1     -0.465100
      9 C5         -0.6120    0.6070   -2.4410 c3        1 FX1     -0.005900
     10 O5          0.1730    1.0060   -1.3050 os        1 FX1     -0.453600
     11 C6         -1.8880    1.4500   -2.4930 c3        1 FX1      0.127400
     12 O6         -1.5870    2.7940   -2.7940 oh        1 FX1     -0.587800
     13 H1          1.5140   -0.8200    1.1960 h1        1 FX1      0.072700
     14 H1A         2.2980   -0.3340   -0.4040 h1        1 FX1      0.072700
     15 HO1         1.9140    1.8230    0.2750 ho        1 FX1      0.417000
     16 HO2        -0.4990    1.1410    1.1250 ho        1 FX1      0.441000
     17 H3          0.5570   -2.0120   -1.1370 h1        1 FX1      0.113700
     18 HO3        -1.9160   -1.4900    0.1320 ho        1 FX1      0.429000
     19 H5          0.0290    0.8040   -3.3430 h1        1 FX1      0.108700
     20 H6         -2.4280    1.3770   -1.5110 h1        1 FX1      0.067200
     21 H6A        -2.5450    1.0960   -3.3320 h1        1 FX1      0.067200
     22 HO6        -1.0090    3.1180   -2.0910 ho        1 FX1      0.410000
@<TRIPOS>BOND
     1    1    2 1   
     2    1    3 1   
     3    1   13 1   
     4    1   14 1   
     5    2   15 1   
     6    3    4 1   
     7    3    5 1   
     8    3   10 1   
     9    4   16 1   
    10    5    6 1   
    11    5    7 1   
    12    5   17 1   
    13    6   18 1   
    14    7    8 2   
    15    7    9 1   
    16    9   10 1   
    17    9   11 1   
    18    9   19 1   
    19   11   12 1   
    20   11   20 1   
    21   11   21 1   
    22   12   22 1   
@<TRIPOS>SUBSTRUCTURE
     1 FX1         1 TEMP              0 ****  ****    0 ROOT
