@<TRIPOS>MOLECULE
molecule
   22    22     1     0     0
SMALL
bcc


@<TRIPOS>ATOM
      1 C1           1.5290     0.0000     0.0000 c3         1 FX1       0.093400
      2 O1           2.0070     1.1500     0.7010 oh         1 FX1      -0.592800
      3 C2           0.0000     0.0000     0.0000 c3         1 FX1       0.346600
      4 O2          -0.4880     0.0000     1.3420 oh         1 FX1      -0.551800
      5 C3          -0.5280    -1.2360    -0.7550 c3         1 FX1       0.014100
      6 O3          -1.3920    -2.0020     0.0870 oh         1 FX1      -0.545800
      7 C4          -1.3020    -0.6580    -1.9330 c          1 FX1       0.540100
      8 O4          -2.1680    -1.1790    -2.5940 o          1 FX1      -0.464100
      9 C5          -0.7100     0.7400    -2.0690 c3         1 FX1       0.027100
     10 O5          -0.4920     1.1560    -0.7030 os         1 FX1      -0.368600
     11 C6          -1.6990     1.6790    -2.7640 c3         1 FX1       0.155400
     12 O6          -1.0780     2.9470    -2.9830 oh         1 FX1      -0.603800
     13 H1           1.8900    -0.8960     0.4890 h1         1 FX1       0.033200
     14 H1A          1.8900     0.0240    -1.0210 h1         1 FX1       0.033200
     15 HO1          2.9460     1.1080     0.7710 ho         1 FX1       0.411000
     16 HO2          0.2020     0.2620     1.9280 ho         1 FX1       0.423000
     17 H3           0.2980    -1.8410    -1.1080 h1         1 FX1       0.062700
     18 HO3         -1.2290    -2.9210    -0.0480 ho         1 FX1       0.406000
     19 H5           0.2300     0.7020    -2.6070 h1         1 FX1       0.079700
     20 H6          -2.5740     1.8080    -2.1380 h1         1 FX1       0.045700
     21 H6A         -1.9950     1.2520    -3.7150 h1         1 FX1       0.045700
     22 HO6         -1.7430     3.6040    -3.1130 ho         1 FX1       0.409000
@<TRIPOS>BOND
     1     3     1 1
     2     1     2 1
     3     1    13 1
     4     1    14 1
     5     2    15 1
     6     4     3 1
     7    10     3 1
     8     3     5 1
     9     4    16 1
    10     7     5 1
    11     6     5 1
    12     5    17 1
    13     6    18 1
    14     8     7 2
    15     9     7 1
    16    11     9 1
    17     9    10 1
    18     9    19 1
    19    12    11 1
    20    11    20 1
    21    11    21 1
    22    12    22 1
@<TRIPOS>SUBSTRUCTURE
     1 FX1         1 TEMP              0 ****  ****    0 ROOT
