@<TRIPOS>MOLECULE
molecule
   49    52     1     0     0
SMALL
bcc


@<TRIPOS>ATOM
      1 C7           0.0000     0.0000     0.0000 ce         1 FX2       0.579900
      2 C6           1.9920     0.0000     1.4370 c          1 FX2       0.592700
      3 C1           1.0200    -2.0890     4.3900 ca         1 FX2      -0.245000
      4 C2          -0.3320    -2.3040     4.1230 ca         1 FX2       0.172100
      5 C3          -0.9210    -1.7820     2.9830 ca         1 FX2      -0.153000
      6 C4          -0.1560    -1.0290     2.0950 ca         1 FX2       0.234400
      7 C5           1.2130    -0.8080     2.3850 ca         1 FX2      -0.264600
      8 C9          -0.4120    -3.5530     6.1420 c3         1 FX2       0.127700
      9 C12         -2.0750     0.6950    -1.3030 cc         1 FX2      -0.049300
     10 C17         -3.8480     5.8110    -3.8720 ca         1 FX2       0.139100
     11 C18         -4.2290     5.3280    -2.6290 ca         1 FX2      -0.171500
     12 C19         -4.1550     3.9740    -2.3640 ca         1 FX2      -0.063500
     13 C20         -3.5110     7.5690    -5.4370 c3         1 FX2       0.795700
     14 C21          2.0200    -1.2510    -0.7150 c3         1 FX2      -0.069100
     15 F2          -3.6490     8.9580    -5.5370 f          1 FX2      -0.203300
     16 F           -4.3110     6.9500    -6.4030 f          1 FX2      -0.203300
     17 F1          -2.1730     7.2180    -5.6440 f          1 FX2      -0.203300
     18 O2          -3.9200     7.1430    -4.1360 os         1 FX2      -0.339900
     19 C16         -3.3870     4.9350    -4.8440 ca         1 FX2      -0.171500
     20 C15         -3.3090     3.5830    -4.5710 ca         1 FX2      -0.063500
     21 C14         -3.6990     3.1020    -3.3350 ca         1 FX2      -0.141300
     22 N2          -2.2980     1.3190    -2.4720 na         1 FX2       0.076400
     23 N1          -1.0640     1.6240    -3.0560 nc         1 FX2      -0.509800
     24 C11         -0.1080     1.2030    -2.2730 cd         1 FX2       0.360200
     25 C10         -0.7050     0.6020    -1.1390 cd         1 FX2      -0.382200
     26 C8           1.5060     0.0000     0.0000 c3         1 FX2      -0.259000
     27 O            2.9650     0.6350     1.7850 o          1 FX2      -0.516100
     28 C            1.7870    -1.3490     3.5340 ca         1 FX2      -0.019000
     29 N           -0.7010    -0.5060     0.9680 nf         1 FX2      -0.639100
     30 O1          -1.0770    -3.0370     4.9880 os         1 FX2      -0.324900
     31 H1           1.4630    -2.5040     5.2870 ha         1 FX2       0.139000
     32 H2          -1.9720    -1.9550     2.7850 ha         1 FX2       0.159000
     33 H3          -1.1150    -4.1170     6.7430 h1         1 FX2       0.043700
     34 H4          -0.0140    -2.7330     6.7270 h1         1 FX2       0.043700
     35 H5           0.3990    -4.2020     5.8320 h1         1 FX2       0.043700
     36 H6          -2.8240     0.2210    -0.6810 h4         1 FX2       0.192000
     37 H7          -4.5860     6.0110    -1.8680 ha         1 FX2       0.153000
     38 H8          -4.4560     3.5950    -1.3940 ha         1 FX2       0.144000
     39 H9           2.9400    -1.5820    -0.2470 hc         1 FX2       0.048033
     40 H10          2.2070    -1.0210    -1.7560 hc         1 FX2       0.048033
     41 H11          1.2770    -2.0370    -0.6460 hc         1 FX2       0.048033
     42 H12         -3.0850     5.3110    -5.8140 ha         1 FX2       0.153000
     43 H13         -2.9510     2.8980    -5.3300 ha         1 FX2       0.144000
     44 H14         -3.7490     1.0660    -3.9570 h1         1 FX2       0.069700
     45 H15         -4.3850     1.3540    -2.3310 h1         1 FX2       0.069700
     46 H16          0.9550     1.2970    -2.4590 h4         1 FX2       0.054100
     47 H17          1.8680     0.8880    -0.5040 hc         1 FX2       0.091700
     48 H18          2.8370    -1.1850     3.7470 ha         1 FX2       0.147000
     49 C13         -3.6120     1.6260    -3.0400 c3         1 FX2       0.125600
@<TRIPOS>BOND
     1    15    13 1
     2    17    13 1
     3    13    16 1
     4    13    18 1
     5    18    10 1
     6    19    10 ar
     7    19    20 ar
     8    10    11 ar
     9    20    21 ar
    10    11    12 ar
    11    21    12 ar
    12    21    49 1
    13    49    22 1
    14    22     9 1
    15    22    23 1
    16     9    25 2
    17    23    24 2
    18    14    26 1
    19    25    24 1
    20    25     1 1
    21    26     1 1
    22    26     2 1
    23     1    29 2
    24    27     2 2
    25     2     7 1
    26    29     6 1
    27     6     7 ar
    28     6     5 ar
    29     7    28 ar
    30     5     4 ar
    31    28     3 ar
    32     4     3 ar
    33     4    30 1
    34     8    30 1
    35     3    31 1
    36     5    32 1
    37     8    33 1
    38     8    34 1
    39     8    35 1
    40     9    36 1
    41    11    37 1
    42    12    38 1
    43    14    39 1
    44    14    40 1
    45    14    41 1
    46    19    42 1
    47    20    43 1
    48    49    44 1
    49    49    45 1
    50    24    46 1
    51    26    47 1
    52    28    48 1
@<TRIPOS>SUBSTRUCTURE
     1 FX2         1 TEMP              0 ****  ****    0 ROOT
