@<TRIPOS>MOLECULE
FX2
   49    52     1     0     0
SMALL
bcc


@<TRIPOS>ATOM
      1 C7           0.0000     0.0000     0.0000 ce         1 FX2       0.527900
      2 C6           1.9920     0.0000     1.4370 c          1 FX2       0.643700
      3 C1           1.0200    -2.0890     4.3900 ca         1 FX2      -0.238000
      4 C2          -0.3320    -2.3040     4.1230 ca         1 FX2       0.185100
      5 C3          -0.9210    -1.7820     2.9830 ca         1 FX2      -0.142000
      6 C4          -0.1560    -1.0290     2.0950 ca         1 FX2       0.196400
      7 C5           1.2130    -0.8080     2.3850 ca         1 FX2      -0.276600
      8 C9          -0.4120    -3.5530     6.1420 c3         1 FX2       0.243700
      9 C12         -2.0750     0.6950    -1.3030 cd         1 FX2      -0.195300
     10 C17         -3.8480     5.8110    -3.8720 ca         1 FX2       0.151100
     11 C18         -4.2290     5.3280    -2.6290 ca         1 FX2      -0.160000
     12 C19         -4.1550     3.9740    -2.3640 ca         1 FX2      -0.026000
     13 C20         -3.5110     7.5690    -5.4370 c3         1 FX2       0.756700
     14 C21          2.0200    -1.2510    -0.7150 c3         1 FX2       0.029900
     15 F2          -3.6490     8.9580    -5.5370 f          1 FX2      -0.196300
     16 F           -4.3110     6.9500    -6.4030 f          1 FX2      -0.196300
     17 F1          -2.1730     7.2180    -5.6440 f          1 FX2      -0.196300
     18 O2          -3.9200     7.1430    -4.1360 os         1 FX2      -0.314900
     19 C16         -3.3870     4.9350    -4.8440 ca         1 FX2      -0.160000
     20 C15         -3.3090     3.5830    -4.5710 ca         1 FX2      -0.026000
     21 C14         -3.6990     3.1020    -3.3350 ca         1 FX2      -0.157300
     22 N2          -2.2980     1.3190    -2.4720 na         1 FX2       0.504400
     23 N1          -1.0640     1.6240    -3.0560 nd         1 FX2      -0.650800
     24 C11         -0.1080     1.2030    -2.2730 cc         1 FX2       0.420200
     25 C10         -0.7050     0.6020    -1.1390 cc         1 FX2      -0.397200
     26 C8           1.5060     0.0000     0.0000 c3         1 FX2      -0.221000
     27 O            2.9650     0.6350     1.7850 o          1 FX2      -0.548100
     28 C            1.7870    -1.3490     3.5340 ca         1 FX2       0.023000
     29 N           -0.7010    -0.5060     0.9680 nf         1 FX2      -0.521100
     30 O1          -1.0770    -3.0370     4.9880 os         1 FX2      -0.305900
     31 H1           1.4630    -2.5040     5.2870 ha         1 FX2       0.125000
     32 H2          -1.9720    -1.9550     2.7850 ha         1 FX2       0.130000
     33 H3          -1.1150    -4.1170     6.7430 h1         1 FX2      -0.000633
     34 H4          -0.0140    -2.7330     6.7270 h1         1 FX2      -0.000633
     35 H5           0.3990    -4.2020     5.8320 h1         1 FX2      -0.000633
     36 H6          -2.8240     0.2210    -0.6810 h4         1 FX2       0.161000
     37 H7          -4.5860     6.0110    -1.8680 ha         1 FX2       0.128000
     38 H8          -4.4560     3.5950    -1.3940 ha         1 FX2       0.112500
     39 H9           2.9400    -1.5820    -0.2470 hc         1 FX2       0.012033
     40 H10          2.2070    -1.0210    -1.7560 hc         1 FX2       0.012033
     41 H11          1.2770    -2.0370    -0.6460 hc         1 FX2       0.012033
     42 H12         -3.0850     5.3110    -5.8140 ha         1 FX2       0.128000
     43 H13         -2.9510     2.8980    -5.3300 ha         1 FX2       0.112500
     44 H14         -3.7490     1.0660    -3.9570 h1         1 FX2       0.036200
     45 H15         -4.3850     1.3540    -2.3310 h1         1 FX2       0.036200
     46 H16          0.9550     1.2970    -2.4590 h4         1 FX2       0.009100
     47 H17          1.8680     0.8880    -0.5040 hc         1 FX2       0.064700
     48 H18          2.8370    -1.1850     3.7470 ha         1 FX2       0.114000
     49 C13         -3.6120     1.6260    -3.0400 c3         1 FX2       0.056600
@<TRIPOS>BOND
     1     1    25 1   
     2     1    26 1   
     3     1    29 2   
     4     2     7 1   
     5     2    26 1   
     6     2    27 2   
     7     3     4 ar  
     8     3    28 ar  
     9     3    31 1   
    10     4     5 ar  
    11     4    30 1   
    12     5     6 ar  
    13     5    32 1   
    14     6     7 ar  
    15     6    29 1   
    16     7    28 ar  
    17     8    30 1   
    18     8    33 1   
    19     8    34 1   
    20     8    35 1   
    21     9    22 1   
    22     9    25 2   
    23     9    36 1   
    24    10    11 ar  
    25    10    18 1   
    26    10    19 ar  
    27    11    12 ar  
    28    11    37 1   
    29    12    21 ar  
    30    12    38 1   
    31    13    15 1   
    32    13    16 1   
    33    13    17 1   
    34    13    18 1   
    35    14    26 1   
    36    14    39 1   
    37    14    40 1   
    38    14    41 1   
    39    19    20 ar  
    40    19    42 1   
    41    20    21 ar  
    42    20    43 1   
    43    21    49 1   
    44    22    23 1   
    45    22    49 1   
    46    23    24 2   
    47    24    25 1   
    48    24    46 1   
    49    26    47 1   
    50    28    48 1   
    51    44    49 1   
    52    45    49 1   
@<TRIPOS>SUBSTRUCTURE
     1 FX2         1 TEMP              0 ****  ****    0 ROOT
