@<TRIPOS>MOLECULE
FX3
   41    42     1     0     0
SMALL
bcc


@<TRIPOS>ATOM
      1 O2          0.6450    0.0320    0.6200 o         1 FX3     -0.477000
      2 C9          1.3450   -0.8670    0.1560 c         1 FX3      0.641300
      3 C8          1.7990   -2.0940    0.8210 ce        1 FX3     -0.261200
      4 C7          2.8020   -2.1960    1.7010 cf        1 FX3     -0.019200
      5 C1          3.7190   -1.1480    2.1170 ca        1 FX3     -0.095800
      6 C6          4.1630   -0.1610    1.2330 ca        1 FX3     -0.094000
      7 C5          5.0660    0.8140    1.6560 ca        1 FX3     -0.190000
      8 C4          5.5280    0.8170    2.9740 ca        1 FX3      0.122100
      9 O4          6.4140    1.7460    3.4590 oh        1 FX3     -0.472100
     10 C3          5.0820   -0.1830    3.8790 ca        1 FX3      0.097100
     11 O3          5.6050   -0.1010    5.1540 os        1 FX3     -0.302900
     12 C10         5.0760   -1.0190    6.1030 c3        1 FX3      0.109700
     13 C2          4.1900   -1.1590    3.4430 ca        1 FX3     -0.154000
     14 O5'         1.6260   -0.6510   -1.1770 os        1 FX3     -0.435900
     15 C5'         2.4870   -1.5740   -1.8450 c3        1 FX3      0.119400
     16 C4'         3.2960   -0.7910   -2.8800 c3        1 FX3      0.096100
     17 O4'         4.2060    0.0740   -2.1910 os        1 FX3     -0.443600
     18 C3'         2.4080    0.0590   -3.8180 c3        1 FX3      0.133100
     19 O3'         2.4330   -0.4290   -5.1350 oh        1 FX3     -0.576800
     20 C2'         2.9340    1.5030   -3.6640 c3        1 FX3      0.056100
     21 O2'         3.5890    1.8630   -4.8650 oh        1 FX3     -0.604800
     22 C1'         3.9430    1.4420   -2.4920 c3        1 FX3      0.300900
     23 OXT         5.1920    1.9720   -2.8400 oh        1 FX3     -0.605800
     24 H8          1.1790   -2.9730    0.5690 ha        1 FX3      0.154000
     25 H7          2.9810   -3.1760    2.1840 ha        1 FX3      0.134000
     26 H6          3.8120   -0.1500    0.1860 ha        1 FX3      0.153000
     27 H2          3.8380   -1.9400    4.1330 ha        1 FX3      0.141000
     28 H5          5.4150    1.5810    0.9490 ha        1 FX3      0.145000
     29 H4          6.6230    2.3570    2.7360 ho        1 FX3      0.419000
     30 H101        3.9700   -0.9010    6.1990 h1        1 FX3      0.044700
     31 H102        5.3360   -2.0690    5.8220 h1        1 FX3      0.044700
     32 H103        5.5890   -0.7280    7.0550 h1        1 FX3      0.044700
     33 H5'1        1.8400   -2.3320   -2.3610 h1        1 FX3      0.061700
     34 H5'2        3.1840   -2.0770   -1.1250 h1        1 FX3      0.061700
     35 H4'         3.9240   -1.5160   -3.4670 h1        1 FX3      0.080700
     36 H3'         1.3280   -0.0010   -3.5060 h1        1 FX3      0.111700
     37 H1'         3.6060    1.9760   -1.5650 h2        1 FX3      0.107700
     38 HA          3.2680   -0.1660   -5.5450 ho        1 FX3      0.421000
     39 H2'         2.1020    2.2200   -3.4460 h1        1 FX3      0.077700
     40 HB          4.0270    2.7110   -4.7010 ho        1 FX3      0.428000
     41 HOT         5.6130    1.3650   -3.4660 ho        1 FX3      0.424000
@<TRIPOS>BOND
     1    1    2 2   
     2    2    3 1   
     3    2   14 1   
     4    3    4 2   
     5    3   24 1   
     6    4    5 1   
     7    4   25 1   
     8    5    6 ar  
     9    5   13 ar  
    10    6    7 ar  
    11    6   26 1   
    12    7    8 ar  
    13    7   28 1   
    14    8    9 1   
    15    8   10 ar  
    16    9   29 1   
    17   10   11 1   
    18   10   13 ar  
    19   11   12 1   
    20   12   30 1   
    21   12   31 1   
    22   12   32 1   
    23   13   27 1   
    24   14   15 1   
    25   15   16 1   
    26   15   33 1   
    27   15   34 1   
    28   16   17 1   
    29   16   18 1   
    30   16   35 1   
    31   17   22 1   
    32   18   19 1   
    33   18   20 1   
    34   18   36 1   
    35   19   38 1   
    36   20   21 1   
    37   20   22 1   
    38   20   39 1   
    39   21   40 1   
    40   22   23 1   
    41   22   37 1   
    42   23   41 1   
@<TRIPOS>SUBSTRUCTURE
     1 FX3         1 TEMP              0 ****  ****    0 ROOT
