@<TRIPOS>MOLECULE
molecule
   41    42     1     0     0
SMALL
bcc


@<TRIPOS>ATOM
      1 O2           0.0000     0.0000     0.0000 o          1 FX3      -0.458000
      2 C9           1.2220     0.0000     0.0000 c          1 FX3       0.653300
      3 C8           1.9790     0.0000     1.2760 ce         1 FX3      -0.241200
      4 C7           3.2980     0.2180     1.2450 cf         1 FX3      -0.045200
      5 C1           4.1610     0.2660     2.4440 ca         1 FX3      -0.081800
      6 C6           5.2760     1.1070     2.4120 ca         1 FX3      -0.103000
      7 C5           6.1200     1.1870     3.5180 ca         1 FX3      -0.155000
      8 C4           5.8450     0.4280     4.6600 ca         1 FX3       0.110100
      9 O4           6.6860     0.5270     5.7320 oh         1 FX3      -0.508100
     10 C3           4.7250    -0.4190     4.6950 ca         1 FX3       0.107100
     11 O3           4.4470    -1.1780     5.8170 os         1 FX3      -0.357900
     12 C10          4.4740    -2.6120     5.7760 c3         1 FX3       0.146700
     13 C2           3.8800    -0.4950     3.5800 ca         1 FX3      -0.132000
     14 O5'          1.9140     0.0330    -1.2920 os         1 FX3      -0.484900
     15 C5'          2.9390    -0.9120    -1.6290 c3         1 FX3       0.147400
     16 C4'          3.5320    -0.6230    -3.0020 c3         1 FX3       0.134100
     17 O4'          4.0670     0.7040    -3.0170 os         1 FX3      -0.440600
     18 C3'          2.4980    -0.7200    -4.1190 c3         1 FX3       0.111100
     19 O3'          2.9520    -1.6580    -5.0990 oh         1 FX3      -0.570800
     20 C2'          2.4060     0.6880    -4.6860 c3         1 FX3       0.126100
     21 O2'          2.3660     0.7080    -6.1160 oh         1 FX3      -0.563800
     22 C1'          3.6580     1.3980    -4.1980 c3         1 FX3       0.352900
     23 OXT          4.8280     1.5370    -4.8410 oh         1 FX3      -0.562800
     24 H8           1.4710    -0.1550     2.2200 ha         1 FX3       0.166000
     25 H7           3.7680     0.3860     0.2840 ha         1 FX3       0.150000
     26 H6           5.4860     1.6940     1.5260 ha         1 FX3       0.144000
     27 H2           3.0130    -1.1460     3.5980 ha         1 FX3       0.147000
     28 H5           6.9850     1.8390     3.4940 ha         1 FX3       0.149000
     29 H4           6.5520     1.3550     6.1610 ho         1 FX3       0.424000
     30 H101         5.2560    -2.9390     5.1010 h1         1 FX3       0.037700
     31 H102         3.5180    -2.9810     5.4270 h1         1 FX3       0.037700
     32 H103         4.6700    -2.9970     6.7690 h1         1 FX3       0.037700
     33 H5'1         3.7260    -0.8620    -0.8850 h1         1 FX3       0.038200
     34 H5'2         2.5150    -1.9090    -1.6290 h1         1 FX3       0.038200
     35 H4'          4.3310    -1.3260    -3.2010 h1         1 FX3       0.088700
     36 H3'          1.5400    -1.0240    -3.7150 h1         1 FX3       0.056700
     37 H1'          3.3480     2.3910    -3.8950 h2         1 FX3       0.018700
     38 HA           2.3300    -2.3630    -5.1720 ho         1 FX3       0.401000
     39 H2'          1.5300     1.1830    -4.2850 h1         1 FX3       0.063700
     40 HB           1.5700     1.1240    -6.4020 ho         1 FX3       0.397000
     41 HOT          5.1410     2.4200    -4.7370 ho         1 FX3       0.419000
@<TRIPOS>BOND
     1     1     2 2
     2     2     3 1
     3     2    14 1
     4     3     4 2
     5     4     5 1
     6     5     6 ar
     7     5    13 ar
     8     6     7 ar
     9     7     8 ar
    10     8     9 1
    11     8    10 ar
    12    10    11 1
    13    10    13 ar
    14    11    12 1
    15    14    15 1
    16    15    16 1
    17    16    17 1
    18    16    18 1
    19    17    22 1
    20    18    19 1
    21    18    20 1
    22    20    21 1
    23    20    22 1
    24    22    23 1
    25     3    24 1
    26     4    25 1
    27     6    26 1
    28    13    27 1
    29     7    28 1
    30     9    29 1
    31    12    30 1
    32    12    31 1
    33    12    32 1
    34    15    33 1
    35    15    34 1
    36    16    35 1
    37    18    36 1
    38    22    37 1
    39    19    38 1
    40    20    39 1
    41    21    40 1
    42    23    41 1
@<TRIPOS>SUBSTRUCTURE
     1 FX3         1 TEMP              0 ****  ****    0 ROOT
