@<TRIPOS>MOLECULE
FX4
   36    37     1     0     0
SMALL
bcc


@<TRIPOS>ATOM
      1 O1           0.0000     0.0000     0.0000 o          1 FX4      -0.891300
      2 C2           1.2080     0.0000     0.0000 c          1 FX4       0.979600
      3 O3           1.8800     0.0000     1.1620 o          1 FX4      -0.891300
      4 C4           1.9610    -0.0040    -1.3060 c3         1 FX4      -0.096000
      5 N5           1.0100    -0.0090    -2.4190 n          1 FX4      -0.056400
      6 C6           0.5680    -1.1670    -2.9240 c          1 FX4       0.694100
      7 O10          0.8760    -2.2830    -2.5510 o          1 FX4      -0.576500
      8 S7          -0.5510    -0.7630    -4.2360 ss         1 FX4      -0.311200
      9 C9           0.5760     1.1320    -2.9300 c          1 FX4       0.635700
     10 O11          0.9380     2.2160    -2.5100 o          1 FX4      -0.650500
     11 C8          -0.3700     0.9920    -4.0420 cc         1 FX4      -0.091600
     12 C12         -0.9720     1.9780    -4.7550 cf         1 FX4       0.060800
     13 C13         -1.7690     1.6440    -5.9430 ca         1 FX4      -0.082800
     14 C14         -2.7300     2.5420    -6.4200 ca         1 FX4      -0.111000
     15 C15         -3.4770     2.2260    -7.5330 ca         1 FX4      -0.200000
     16 C16         -3.2780     1.0160    -8.1850 ca         1 FX4       0.100100
     17 O24         -4.0180     0.7100    -9.2830 os         1 FX4      -0.272900
     18 C25         -4.9790     1.6770    -9.7080 c3         1 FX4       0.238700
     19 C18         -1.5660     0.4260    -6.6050 ca         1 FX4      -0.192000
     20 C17         -2.3220     0.1150    -7.7170 ca         1 FX4       0.148100
     21 O19         -2.1270    -1.0660    -8.3630 os         1 FX4      -0.249900
     22 C20         -1.1250    -1.9360    -7.8350 c3         1 FX4       0.070400
     23 C21         -1.0520    -3.1860    -8.6740 c          1 FX4       0.979600
     24 O22         -1.7840    -3.3180    -9.6260 o          1 FX4      -0.889300
     25 O23         -0.1740    -4.1520    -8.3640 o          1 FX4      -0.889300
     26 H4           2.5850    -0.8880    -1.3600 h1         1 FX4       0.039700
     27 H4A          2.5830     0.8810    -1.3660 h1         1 FX4       0.039700
     28 H12         -0.7640     3.0150    -4.5220 ha         1 FX4       0.112000
     29 H14         -2.8940     3.4820    -5.9070 ha         1 FX4       0.094000
     30 H15         -4.2210     2.9220    -7.9000 ha         1 FX4       0.105000
     31 H25         -4.4740     2.6060    -9.9470 h1         1 FX4      -0.014300
     32 H25A        -5.6950     1.8490    -8.9140 h1         1 FX4      -0.014300
     33 H25B        -5.4950     1.3110   -10.5870 h1         1 FX4      -0.014300
     34 H18         -0.7580    -0.2270    -6.3000 ha         1 FX4       0.181000
     35 H20         -1.3760    -2.2000    -6.8150 h1         1 FX4       0.007200
     36 H20A        -0.1650    -1.4340    -7.8530 h1         1 FX4       0.007200
@<TRIPOS>BOND
     1     1     2 1   
     2     2     3 1   
     3     2     4 1   
     4     4     5 1   
     5     4    26 1   
     6     4    27 1   
     7     5     6 1   
     8     5     9 1   
     9     6     7 2   
    10     6     8 1   
    11     8    11 1   
    12     9    10 2   
    13     9    11 1   
    14    11    12 2   
    15    12    13 1   
    16    12    28 1   
    17    13    14 ar  
    18    13    19 ar  
    19    14    15 ar  
    20    14    29 1   
    21    15    16 ar  
    22    15    30 1   
    23    16    17 1   
    24    16    20 ar  
    25    17    18 1   
    26    18    31 1   
    27    18    32 1   
    28    18    33 1   
    29    19    20 ar  
    30    19    34 1   
    31    20    21 1   
    32    21    22 1   
    33    22    23 1   
    34    22    35 1   
    35    22    36 1   
    36    23    24 1   
    37    23    25 1   
@<TRIPOS>SUBSTRUCTURE
     1 FX4         1 TEMP              0 ****  ****    0 ROOT
