@<TRIPOS>MOLECULE
FX7
   55    56     1     0     0
SMALL
bcc


@<TRIPOS>ATOM
      1 C28          0.0000     0.0000     0.0000 c3         1 FX7      -0.026400
      2 C29          1.5300     0.0000     0.0000 c3         1 FX7      -0.033400
      3 C30          2.0400     0.0000     1.4420 c3         1 FX7      -0.019400
      4 C25          3.5700    -0.0000     1.4420 c3         1 FX7      -0.072400
      5 C21          4.0730    -0.0000     2.8630 c          1 FX7       0.697100
      6 O22          3.2870     0.0000     3.7820 o          1 FX7      -0.586000
      7 O20          5.3920    -0.0010     3.1080 os         1 FX7      -0.307200
      8 C1           5.7770    -0.0010     4.4120 ca         1 FX7       0.165100
      9 C2           5.9750    -1.2020     5.0790 ca         1 FX7       0.014100
     10 Br1          5.7070    -2.8420     4.1740 br         1 FX7      -0.090100
     11 C3           6.3670    -1.2000     6.4040 ca         1 FX7      -0.043000
     12 C4           6.5640    -0.0010     7.0650 ca         1 FX7       0.023100
     13 Br2          7.1010     0.0010     8.8780 br         1 FX7      -0.106100
     14 C5           6.3680     1.1980     6.4030 ca         1 FX7      -0.047000
     15 C6           5.9800     1.2000     5.0760 ca         1 FX7      -0.127300
     16 C7           5.7670     2.5060     4.3550 c3         1 FX7       0.114300
     17 N8           4.3340     2.8070     4.3030 ns         1 FX7      -0.201900
     18 C9           3.9030     3.9330     3.7020 c          1 FX7       0.576700
     19 O17          4.7040     4.7000     3.2030 o          1 FX7      -0.600100
     20 C10          2.4570     4.2370     3.6490 ca         1 FX7      -0.050600
     21 C15          1.8350     4.4720     2.4230 ca         1 FX7      -0.406200
     22 N16          2.6210     4.4190     1.1690 no         1 FX7       1.040200
     23 O19          3.7830     4.0530     1.1940 o          1 FX7      -0.439500
     24 O18          2.1060     4.7390     0.1130 o          1 FX7      -0.439500
     25 C11          1.7080     4.2840     4.8260 ca         1 FX7      -0.095000
     26 C12          0.3590     4.5670     4.7700 ca         1 FX7      -0.044000
     27 C13         -0.2500     4.8050     3.5500 ca         1 FX7      -0.106000
     28 C14          0.4850     4.7540     2.3800 ca         1 FX7      -0.016000
     29 C8          -0.5100     0.0000    -1.4430 c3         1 FX7      -0.030400
     30 C16         -2.0400     0.0000    -1.4430 c3         1 FX7      -0.027400
     31 C17         -2.5500     0.0010    -2.8850 c3         1 FX7       0.006900
     32 H1          -0.3610     0.8840     0.5110 hc         1 FX7       0.014200
     33 H2          -0.3610    -0.8850     0.5100 hc         1 FX7       0.014200
     34 H3           1.8910     0.8850    -0.5110 hc         1 FX7       0.018700
     35 H4           1.8910    -0.8850    -0.5110 hc         1 FX7       0.018700
     36 H5           1.6780     0.8850     1.9530 hc         1 FX7       0.025200
     37 H6           1.6780    -0.8850     1.9530 hc         1 FX7       0.025200
     38 H7           3.9310     0.8840     0.9310 hc         1 FX7       0.047700
     39 H8           3.9310    -0.8840     0.9310 hc         1 FX7       0.047700
     40 H9           6.5210    -2.1370     6.9250 ha         1 FX7       0.133000
     41 H10          6.5240     2.1350     6.9230 ha         1 FX7       0.125000
     42 H11          6.1570     2.4300     3.3480 h1         1 FX7       0.039700
     43 H12          6.2830     3.2990     4.8830 h1         1 FX7       0.039700
     44 H13          3.6790     2.2020     4.7580 hn         1 FX7       0.194500
     45 H14          2.1850     4.0980     5.7810 ha         1 FX7       0.117000
     46 H15         -0.2230     4.6060     5.6820 ha         1 FX7       0.110000
     47 H16         -1.3100     5.0270     3.5120 ha         1 FX7       0.115000
     48 H17          0.0010     4.9390     1.4280 ha         1 FX7       0.135000
     49 H18         -0.1490    -0.8840    -1.9530 hc         1 FX7       0.017700
     50 H19         -0.1490     0.8850    -1.9530 hc         1 FX7       0.017700
     51 H20         -2.4010    -0.8840    -0.9320 hc         1 FX7       0.011200
     52 H21         -2.4010     0.8850    -0.9320 hc         1 FX7       0.011200
     53 H22         -2.1890     0.8850    -3.3960 hc         1 FX7       0.000700
     54 H23         -2.1890    -0.8840    -3.3960 hc         1 FX7       0.000700
     55 H24         -3.6330     0.0010    -2.8850 hc         1 FX7       0.000700
@<TRIPOS>BOND
     1     1     2 1   
     2     1    29 1   
     3     1    32 1   
     4     1    33 1   
     5     2     3 1   
     6     2    34 1   
     7     2    35 1   
     8     3     4 1   
     9     3    36 1   
    10     3    37 1   
    11     4     5 1   
    12     4    38 1   
    13     4    39 1   
    14     5     6 2   
    15     5     7 1   
    16     7     8 1   
    17     8     9 ar  
    18     8    15 ar  
    19     9    10 1   
    20     9    11 ar  
    21    11    12 ar  
    22    11    40 1   
    23    12    13 1   
    24    12    14 ar  
    25    14    15 ar  
    26    14    41 1   
    27    15    16 1   
    28    16    17 1   
    29    16    42 1   
    30    16    43 1   
    31    17    18 1   
    32    17    44 1   
    33    18    19 2   
    34    18    20 1   
    35    20    21 ar  
    36    20    25 ar  
    37    21    22 1   
    38    21    28 ar  
    39    22    23 1   
    40    22    24 1   
    41    25    26 ar  
    42    25    45 1   
    43    26    27 ar  
    44    26    46 1   
    45    27    28 ar  
    46    27    47 1   
    47    28    48 1   
    48    29    30 1   
    49    29    49 1   
    50    29    50 1   
    51    30    31 1   
    52    30    51 1   
    53    30    52 1   
    54    31    53 1   
    55    31    54 1   
    56    31    55 1   
@<TRIPOS>SUBSTRUCTURE
     1 FX7         1 TEMP              0 ****  ****    0 ROOT
