@<TRIPOS>MOLECULE
molecule
   55    56     1     0     0
SMALL
bcc


@<TRIPOS>ATOM
      1 C28          0.0000     0.0000     0.0000 c3         1 FX7      -0.079400
      2 C29          1.5300     0.0000     0.0000 c3         1 FX7      -0.085400
      3 C30          2.0400     0.0000     1.4420 c3         1 FX7      -0.071400
      4 C25          3.5700    -0.0000     1.4420 c3         1 FX7      -0.123400
      5 C21          4.0730    -0.0000     2.8630 c          1 FX7       0.643100
      6 O22          3.2870     0.0000     3.7820 o          1 FX7      -0.546000
      7 O20          5.3920    -0.0010     3.1080 os         1 FX7      -0.330200
      8 C1           5.7770    -0.0010     4.4120 ca         1 FX7       0.158100
      9 C2           5.9750    -1.2020     5.0790 ca         1 FX7      -0.025900
     10 Br1          5.7070    -2.8420     4.1740 br         1 FX7      -0.062100
     11 C3           6.3670    -1.2000     6.4040 ca         1 FX7      -0.062000
     12 C4           6.5640    -0.0010     7.0650 ca         1 FX7      -0.024900
     13 Br2          7.1010     0.0010     8.8780 br         1 FX7      -0.073100
     14 C5           6.3680     1.1980     6.4030 ca         1 FX7      -0.070000
     15 C6           5.9800     1.2000     5.0760 ca         1 FX7      -0.115300
     16 C7           5.7670     2.5060     4.3550 c3         1 FX7       0.164300
     17 N8           4.3340     2.8070     4.3030 ns         1 FX7      -0.582900
     18 C9           3.9030     3.9330     3.7020 c          1 FX7       0.664700
     19 O17          4.7040     4.7000     3.2030 o          1 FX7      -0.562100
     20 C10          2.4570     4.2370     3.6490 ca         1 FX7      -0.078600
     21 C15          1.8350     4.4720     2.4230 ca         1 FX7      -0.119200
     22 N16          2.6210     4.4190     1.1690 no         1 FX7       0.290200
     23 O19          3.7830     4.0530     1.1940 o          1 FX7      -0.192000
     24 O18          2.1060     4.7390     0.1130 o          1 FX7      -0.192000
     25 C11          1.7080     4.2840     4.8260 ca         1 FX7      -0.111000
     26 C12          0.3590     4.5670     4.7700 ca         1 FX7      -0.092000
     27 C13         -0.2500     4.8050     3.5500 ca         1 FX7      -0.121000
     28 C14          0.4850     4.7540     2.3800 ca         1 FX7      -0.075000
     29 C8          -0.5100     0.0000    -1.4430 c3         1 FX7      -0.082400
     30 C16         -2.0400     0.0000    -1.4430 c3         1 FX7      -0.083400
     31 C17         -2.5500     0.0010    -2.8850 c3         1 FX7      -0.092100
     32 H1          -0.3610     0.8840     0.5110 hc         1 FX7       0.041700
     33 H2          -0.3610    -0.8850     0.5100 hc         1 FX7       0.041700
     34 H3           1.8910     0.8850    -0.5110 hc         1 FX7       0.046700
     35 H4           1.8910    -0.8850    -0.5110 hc         1 FX7       0.046700
     36 H5           1.6780     0.8850     1.9530 hc         1 FX7       0.054700
     37 H6           1.6780    -0.8850     1.9530 hc         1 FX7       0.054700
     38 H7           3.9310     0.8840     0.9310 hc         1 FX7       0.083700
     39 H8           3.9310    -0.8840     0.9310 hc         1 FX7       0.083700
     40 H9           6.5210    -2.1370     6.9250 ha         1 FX7       0.164000
     41 H10          6.5240     2.1350     6.9230 ha         1 FX7       0.156000
     42 H11          6.1570     2.4300     3.3480 h1         1 FX7       0.072200
     43 H12          6.2830     3.2990     4.8830 h1         1 FX7       0.072200
     44 H13          3.6790     2.2020     4.7580 hn         1 FX7       0.330500
     45 H14          2.1850     4.0980     5.7810 ha         1 FX7       0.152000
     46 H15         -0.2230     4.6060     5.6820 ha         1 FX7       0.147000
     47 H16         -1.3100     5.0270     3.5120 ha         1 FX7       0.150000
     48 H17          0.0010     4.9390     1.4280 ha         1 FX7       0.170000
     49 H18         -0.1490    -0.8840    -1.9530 hc         1 FX7       0.043700
     50 H19         -0.1490     0.8850    -1.9530 hc         1 FX7       0.043700
     51 H20         -2.4010    -0.8840    -0.9320 hc         1 FX7       0.039200
     52 H21         -2.4010     0.8850    -0.9320 hc         1 FX7       0.039200
     53 H22         -2.1890     0.8850    -3.3960 hc         1 FX7       0.033367
     54 H23         -2.1890    -0.8840    -3.3960 hc         1 FX7       0.033367
     55 H24         -3.6330     0.0010    -2.8850 hc         1 FX7       0.033367
@<TRIPOS>BOND
     1    19    18 2
     2    23    22 1
     3     6     5 2
     4    22    24 1
     5    22    21 1
     6    18    20 1
     7    18    17 1
     8    21    20 ar
     9    21    28 ar
    10    13    12 1
    11    20    25 ar
    12     5     4 1
    13     5     7 1
    14    14    12 ar
    15    14    15 ar
    16    12    11 ar
    17    28    27 ar
    18    16    15 1
    19    16    17 1
    20     4     3 1
    21    15     8 ar
    22     3     2 1
    23    25    26 ar
    24    11     9 ar
    25     8     9 ar
    26     8     7 1
    27    27    26 ar
    28     9    10 1
    29     2     1 1
    30     1    29 1
    31    29    30 1
    32    30    31 1
    33     1    32 1
    34     1    33 1
    35     2    34 1
    36     2    35 1
    37     3    36 1
    38     3    37 1
    39     4    38 1
    40     4    39 1
    41    11    40 1
    42    14    41 1
    43    16    42 1
    44    16    43 1
    45    17    44 1
    46    25    45 1
    47    26    46 1
    48    27    47 1
    49    28    48 1
    50    29    49 1
    51    29    50 1
    52    30    51 1
    53    30    52 1
    54    31    53 1
    55    31    54 1
    56    31    55 1
@<TRIPOS>SUBSTRUCTURE
     1 FX7         1 TEMP              0 ****  ****    0 ROOT
