@<TRIPOS>MOLECULE
FXA
   50    53     1     0     0
SMALL
bcc


@<TRIPOS>ATOM
      1 C1           0.0000     0.0000     0.0000 ca         1 FXA      -0.156000
      2 C2           1.3830     0.0000     0.0000 ca         1 FXA       0.041000
      3 C3           2.0760     0.0000     1.1960 ca         1 FXA      -0.188500
      4 C10          1.5080     0.5190     4.7160 c          1 FXA       0.599700
      5 C11          2.2790     0.6090     5.9720 ca         1 FXA      -0.149600
      6 C13          1.6590     1.0440     7.1460 ca         1 FXA      -0.047500
      7 C14          2.3810     1.1280     8.3150 ca         1 FXA      -0.082500
      8 C15          3.7280     0.7800     8.3280 ca         1 FXA      -0.108400
      9 C16          4.3500     0.3470     7.1610 ca         1 FXA      -0.082500
     10 N18          4.4590     0.8670     9.5140 n          1 FXA       0.244800
     11 C19          4.9380    -0.2550    10.0850 c          1 FXA       0.577700
     12 C20          5.6740    -0.1770    11.2790 cc         1 FXA      -0.237200
     13 C21          4.6830     2.0840    10.0790 cc         1 FXA      -0.143400
     14 C24          5.3880     2.1920    11.2300 cd         1 FXA      -0.205000
     15 C27          4.0930    -5.0250     1.1730 ca         1 FXA      -0.027000
     16 C4           1.3810     0.0010     2.3980 ca         1 FXA       0.008600
     17 C5          -0.0090     0.0020     2.3950 ca         1 FXA      -0.159000
     18 C6          -0.6940     0.0010     1.1960 ca         1 FXA      -0.022000
     19 S7           3.8370    -0.0010     1.1950 sy         1 FXA       1.036200
     20 N8           4.3260    -1.4360     1.8620 nu         1 FXA      -0.501800
     21 N9           2.0780     0.0010     3.6110 ns         1 FXA      -0.037100
     22 O12          0.3570     0.9110     4.6810 o          1 FXA      -0.631100
     23 C17          3.6310     0.2560     5.9900 ca         1 FXA      -0.047500
     24 O22          4.7330    -1.3390     9.5640 o          1 FXA      -0.698500
     25 C23          5.8960     1.0410    11.8500 cd         1 FXA      -0.020000
     26 C25          4.0510    -2.6350     1.2150 ca         1 FXA       0.550200
     27 C26          4.3730    -3.8400     1.8290 ca         1 FXA      -0.260300
     28 C28          3.4980    -4.9650    -0.0810 ca         1 FXA      -0.200900
     29 C29          3.2060    -3.7320    -0.6320 ca         1 FXA       0.455200
     30 N30          3.4850    -2.6180     0.0180 nb         1 FXA      -0.598000
     31 Cl31         3.1270    -6.4230    -0.9480 cl         1 FXA      -0.003400
     32 O32          4.2380    -0.0360    -0.1680 o          1 FXA      -0.573800
     33 O33          4.2400     1.0200     2.0980 o          1 FXA      -0.573800
     34 H1          -0.5410    -0.0000    -0.9390 ha         1 FXA       0.110000
     35 H2           1.9240    -0.0010    -0.9390 ha         1 FXA       0.133000
     36 H13          0.6100     1.3140     7.1360 ha         1 FXA       0.118500
     37 H14          1.9010     1.4640     9.2250 ha         1 FXA       0.118000
     38 H16          5.3980     0.0750     7.1750 ha         1 FXA       0.118000
     39 H20          6.0610    -1.0770    11.7430 ha         1 FXA       0.137000
     40 H21          4.2920     2.9760     9.6040 h4         1 FXA       0.132000
     41 H24          5.5590     3.1660    11.6720 ha         1 FXA       0.123000
     42 H27          4.3330    -5.9790     1.6270 ha         1 FXA       0.119000
     43 H5          -0.5530     0.0030     3.3310 ha         1 FXA       0.168000
     44 H6          -1.7770     0.0020     1.1920 ha         1 FXA       0.103000
     45 HN8          4.8580    -1.4360     2.7100 hn         1 FXA       0.343800
     46 HN9          3.0340    -0.2940     3.6350 hn         1 FXA       0.180500
     47 H17          4.1160    -0.0820     5.0810 ha         1 FXA       0.118500
     48 H23          6.4610     1.1190    12.7710 ha         1 FXA       0.106000
     49 H26          4.8370    -3.8510     2.8080 ha         1 FXA       0.120000
     50 H29          2.7420    -3.6800    -1.6090 h4         1 FXA      -0.007900
@<TRIPOS>BOND
     1     1     2 ar  
     2     1    18 ar  
     3     1    34 1   
     4     2     3 ar  
     5     2    35 1   
     6     3    16 ar  
     7     3    19 1   
     8     4     5 1   
     9     4    21 1   
    10     4    22 2   
    11     5     6 ar  
    12     5    23 ar  
    13     6     7 ar  
    14     6    36 1   
    15     7     8 ar  
    16     7    37 1   
    17     8     9 ar  
    18     8    10 1   
    19     9    23 ar  
    20     9    38 1   
    21    10    11 1   
    22    10    13 1   
    23    11    12 1   
    24    11    24 2   
    25    12    25 2   
    26    12    39 1   
    27    13    14 2   
    28    13    40 1   
    29    14    25 1   
    30    14    41 1   
    31    15    27 ar  
    32    15    28 ar  
    33    15    42 1   
    34    16    17 ar  
    35    16    21 1   
    36    17    18 ar  
    37    17    43 1   
    38    18    44 1   
    39    19    20 1   
    40    19    32 2   
    41    19    33 2   
    42    20    26 1   
    43    20    45 1   
    44    21    46 1   
    45    23    47 1   
    46    25    48 1   
    47    26    27 ar  
    48    26    30 ar  
    49    27    49 1   
    50    28    29 ar  
    51    28    31 1   
    52    29    30 ar  
    53    29    50 1   
@<TRIPOS>SUBSTRUCTURE
     1 FXA         1 TEMP              0 ****  ****    0 ROOT
