@<TRIPOS>MOLECULE
molecule
   50    53     1     0     0
SMALL
bcc


@<TRIPOS>ATOM
      1 C1           0.0000     0.0000     0.0000 ca         1 FXA      -0.176000
      2 C2           1.3830     0.0000     0.0000 ca         1 FXA       0.006000
      3 C3           2.0760     0.0000     1.1960 ca         1 FXA      -0.341500
      4 C10          1.5080     0.5190     4.7160 c          1 FXA       0.687700
      5 C11          2.2790     0.6090     5.9720 ca         1 FXA      -0.144600
      6 C13          1.6590     1.0440     7.1460 ca         1 FXA      -0.074500
      7 C14          2.3810     1.1280     8.3150 ca         1 FXA      -0.121000
      8 C15          3.7280     0.7800     8.3280 ca         1 FXA       0.051600
      9 C16          4.3500     0.3470     7.1610 ca         1 FXA      -0.121000
     10 N18          4.4590     0.8670     9.5140 n          1 FXA      -0.234200
     11 C19          4.9380    -0.2550    10.0850 c          1 FXA       0.684700
     12 C20          5.6740    -0.1770    11.2790 cc         1 FXA      -0.259200
     13 C21          4.6830     2.0840    10.0790 cc         1 FXA       0.009600
     14 C24          5.3880     2.1920    11.2300 cd         1 FXA      -0.241000
     15 C27          4.0930    -5.0250     1.1730 ca         1 FXA      -0.054000
     16 C4           1.3810     0.0010     2.3980 ca         1 FXA       0.149600
     17 C5          -0.0090     0.0020     2.3950 ca         1 FXA      -0.164000
     18 C6          -0.6940     0.0010     1.1960 ca         1 FXA      -0.056000
     19 S7           3.8370    -0.0010     1.1950 sy         1 FXA       1.418200
     20 N8           4.3260    -1.4360     1.8620 nu         1 FXA      -0.864800
     21 N9           2.0780     0.0010     3.6110 ns         1 FXA      -0.469100
     22 O12          0.3570     0.9110     4.6810 o          1 FXA      -0.588100
     23 C17          3.6310     0.2560     5.9900 ca         1 FXA      -0.074500
     24 O22          4.7330    -1.3390     9.5640 o          1 FXA      -0.644500
     25 C23          5.8960     1.0410    11.8500 cd         1 FXA      -0.046000
     26 C25          4.0510    -2.6350     1.2150 ca         1 FXA       0.682200
     27 C26          4.3730    -3.8400     1.8290 ca         1 FXA      -0.277300
     28 C28          3.4980    -4.9650    -0.0810 ca         1 FXA      -0.132900
     29 C29          3.2060    -3.7320    -0.6320 ca         1 FXA       0.480200
     30 N30          3.4850    -2.6180     0.0180 nb         1 FXA      -0.720000
     31 Cl31         3.1270    -6.4230    -0.9480 cl         1 FXA      -0.091400
     32 O32          4.2380    -0.0360    -0.1680 o          1 FXA      -0.618300
     33 O33          4.2400     1.0200     2.0980 o          1 FXA      -0.618300
     34 H1          -0.5410    -0.0000    -0.9390 ha         1 FXA       0.137000
     35 H2           1.9240    -0.0010    -0.9390 ha         1 FXA       0.163000
     36 H13          0.6100     1.3140     7.1360 ha         1 FXA       0.146500
     37 H14          1.9010     1.4640     9.2250 ha         1 FXA       0.149500
     38 H16          5.3980     0.0750     7.1750 ha         1 FXA       0.149500
     39 H20          6.0610    -1.0770    11.7430 ha         1 FXA       0.167000
     40 H21          4.2920     2.9760     9.6040 h4         1 FXA       0.161000
     41 H24          5.5590     3.1660    11.6720 ha         1 FXA       0.150000
     42 H27          4.3330    -5.9790     1.6270 ha         1 FXA       0.156000
     43 H5          -0.5530     0.0030     3.3310 ha         1 FXA       0.184000
     44 H6          -1.7770     0.0020     1.1920 ha         1 FXA       0.137000
     45 HN8          4.8580    -1.4360     2.7100 hn         1 FXA       0.463800
     46 HN9          3.0340    -0.2940     3.6350 hn         1 FXA       0.321500
     47 H17          4.1160    -0.0820     5.0810 ha         1 FXA       0.146500
     48 H23          6.4610     1.1190    12.7710 ha         1 FXA       0.139000
     49 H26          4.8370    -3.8510     2.8080 ha         1 FXA       0.146000
     50 H29          2.7420    -3.6800    -1.6090 h4         1 FXA       0.044100
@<TRIPOS>BOND
     1     1     2 ar
     2     1    18 ar
     3     2     3 ar
     4     3    16 ar
     5     3    19 1
     6     4     5 1
     7     4    21 1
     8     4    22 2
     9     5     6 ar
    10     5    23 ar
    11     6     7 ar
    12     7     8 ar
    13     8     9 ar
    14     8    10 1
    15     9    23 ar
    16    10    11 1
    17    10    13 1
    18    11    12 1
    19    11    24 2
    20    12    25 2
    21    13    14 2
    22    14    25 1
    23    15    27 ar
    24    15    28 ar
    25    16    17 ar
    26    16    21 1
    27    17    18 ar
    28    19    20 1
    29    19    32 2
    30    19    33 2
    31    20    26 1
    32    26    27 ar
    33    26    30 ar
    34    28    29 ar
    35    28    31 1
    36    29    30 ar
    37     1    34 1
    38     2    35 1
    39     6    36 1
    40     7    37 1
    41     9    38 1
    42    12    39 1
    43    13    40 1
    44    14    41 1
    45    15    42 1
    46    17    43 1
    47    18    44 1
    48    20    45 1
    49    21    46 1
    50    23    47 1
    51    25    48 1
    52    27    49 1
    53    29    50 1
@<TRIPOS>SUBSTRUCTURE
     1 FXA         1 TEMP              0 ****  ****    0 ROOT
