@<TRIPOS>MOLECULE
molecule
   44    46     1     0     0
SMALL
bcc


@<TRIPOS>ATOM
      1 N16          0.0000     0.0000     0.0000 no         1 FXD       0.291200
      2 C15          1.4800     0.0000     0.0000 ca         1 FXD      -0.117200
      3 C2           1.3430     4.4630     6.0500 ca         1 FXD      -0.025900
      4 C1           0.9200     3.3910     5.2740 ca         1 FXD       0.159100
      5 C10          2.1790     0.0000     1.2070 ca         1 FXD      -0.078600
      6 C9           1.4450    -0.0000     2.4900 c          1 FXD       0.666700
      7 C12          4.2540     0.0000    -0.0030 ca         1 FXD      -0.093000
      8 C14          2.1710    -0.0060    -1.1950 ca         1 FXD      -0.075000
      9 C7           0.9640     0.9570     4.6790 c3         1 FXD       0.163300
     10 C6           1.4200     2.1200     5.5190 ca         1 FXD      -0.114300
     11 C5           2.3360     1.9230     6.5340 ca         1 FXD      -0.071000
     12 C4           2.7560     2.9920     7.3060 ca         1 FXD      -0.023900
     13 C3           2.2600     4.2610     7.0630 ca         1 FXD      -0.063000
     14 O17          0.6210    -0.8630     2.7190 o          1 FXD      -0.562100
     15 C11          3.5760     0.0000     1.1980 ca         1 FXD      -0.111000
     16 C13          3.5550    -0.0060    -1.1970 ca         1 FXD      -0.121000
     17 O18         -0.6090    -0.1280    -1.0480 o          1 FXD      -0.191000
     18 O19         -0.6090     0.1220     1.0470 o          1 FXD      -0.191000
     19 N8           1.6910     0.9570     3.4080 ns         1 FXD      -0.582900
     20 Br1          4.0100     2.7180     8.6950 br         1 FXD      -0.073100
     21 O20          0.0190     3.5870     4.2760 os         1 FXD      -0.330200
     22 C21          0.5090     3.8800     3.0560 c          1 FXD       0.664700
     23 O22          1.7100     3.9570     2.8880 o          1 FXD      -0.548000
     24 C25         -0.4120     4.1050     1.9240 ca         1 FXD      -0.135600
     25 C30          0.0940     4.4090     0.6580 ca         1 FXD      -0.066500
     26 C29         -0.7720     4.6180    -0.3950 ca         1 FXD      -0.142000
     27 C26         -1.7920     4.0110     2.1130 ca         1 FXD      -0.066500
     28 C27         -2.6460     4.2230     1.0510 ca         1 FXD      -0.142000
     29 C28         -2.1380     4.5290    -0.1990 ca         1 FXD      -0.087000
     30 H1           5.3380     0.0000    -0.0120 ha         1 FXD       0.146000
     31 H2           1.6290    -0.0110    -2.1330 ha         1 FXD       0.169000
     32 H3          -0.0990     1.0440     4.4870 h1         1 FXD       0.071700
     33 H4           1.1600     0.0310     5.2070 h1         1 FXD       0.071700
     34 H5           2.7260     0.9310     6.7260 ha         1 FXD       0.156000
     35 H6           2.5900     5.0960     7.6690 ha         1 FXD       0.164000
     36 H7           4.1250     0.0030     2.1320 ha         1 FXD       0.151000
     37 H8           4.0930    -0.0090    -2.1370 ha         1 FXD       0.149000
     38 H9           2.4090     1.6350     3.2430 hn         1 FXD       0.330500
     39 H10          1.1640     4.4790     0.5040 ha         1 FXD       0.150500
     40 H11         -0.3810     4.8560    -1.3770 ha         1 FXD       0.139000
     41 H12         -2.1910     3.7720     3.0910 ha         1 FXD       0.150500
     42 H13         -3.7180     4.1530     1.1960 ha         1 FXD       0.139000
     43 H14         -2.8140     4.6940    -1.0300 ha         1 FXD       0.136000
     44 Br2          0.6710     6.1980     5.7130 br         1 FXD      -0.058100
@<TRIPOS>BOND
     1    28    27 ar
     2    28    29 ar
     3    27    24 ar
     4    23    22 2
     5    29    26 ar
     6    44     3 1
     7    24    22 1
     8    24    25 ar
     9    22    21 1
    10    26    25 ar
    11     3    13 ar
    12     3     4 ar
    13    13    12 ar
    14    21     4 1
    15     4    10 ar
    16    12    20 1
    17    12    11 ar
    18    10    11 ar
    19    10     9 1
    20     9    19 1
    21    14     6 2
    22    19     6 1
    23     6     5 1
    24    18     1 1
    25     1    17 1
    26     1     2 1
    27     5     2 ar
    28     5    15 ar
    29     2     8 ar
    30    15     7 ar
    31     8    16 ar
    32     7    16 ar
    33     7    30 1
    34     8    31 1
    35     9    32 1
    36     9    33 1
    37    11    34 1
    38    13    35 1
    39    15    36 1
    40    16    37 1
    41    19    38 1
    42    25    39 1
    43    26    40 1
    44    27    41 1
    45    28    42 1
    46    29    43 1
@<TRIPOS>SUBSTRUCTURE
     1 FXD         1 TEMP              0 ****  ****    0 ROOT
