@<TRIPOS>MOLECULE
molecule
   42    44     1     0     0
SMALL
bcc


@<TRIPOS>ATOM
      1 CAA          0.0000     0.0000     0.0000 c3         1 FXE       0.130700
      2 OAB          1.4290     0.0000     0.0000 os         1 FXE      -0.342900
      3 CAE          2.0460     0.0000     1.2100 ca         1 FXE       0.212100
      4 CAF          3.4460     0.0000     1.2890 ca         1 FXE      -0.287900
      5 CAD          1.2990     0.0060     2.3700 ca         1 FXE      -0.276000
      6 CAN          1.9250     0.0070     3.6100 ca         1 FXE      -0.044000
      7 CAO          3.2970     0.0010     3.7030 ca         1 FXE      -0.200000
      8 CAP          4.0760     0.0000     2.5470 ca         1 FXE       0.029800
      9 NAQ          5.4260     0.0000     2.3150 na         1 FXE       0.058900
     10 CAV          6.4650    -0.0010     3.3490 c3         1 FXE       0.078600
     11 NAR          5.6560     0.0010     0.9350 nc         1 FXE      -0.493100
     12 CAG          4.5180    -0.0000     0.2920 cd         1 FXE       0.467500
     13 NAH          4.3540     0.0000    -1.0980 ns         1 FXE      -0.465400
     14 CAI          5.4350     0.0000    -1.9030 c          1 FXE       0.774100
     15 OAC          6.5520     0.0000    -1.4220 o          1 FXE      -0.605100
     16 NAJ          5.2780    -0.0000    -3.2410 ns         1 FXE      -0.481100
     17 CAK          6.3980     0.0940    -4.0790 ca         1 FXE       0.046600
     18 CAL          7.5950    -0.5010    -3.7090 ca         1 FXE      -0.094000
     19 CAM          8.6980    -0.4080    -4.5360 ca         1 FXE      -0.149000
     20 CAU          8.6110     0.2790    -5.7330 ca         1 FXE      -0.108000
     21 CAT          7.4220     0.8750    -6.1080 ca         1 FXE      -0.206000
     22 CAS          6.3100     0.7810    -5.2870 ca         1 FXE       0.107100
     23 OAW          5.1370     1.3610    -5.6580 os         1 FXE      -0.339900
     24 CAX          5.1220     2.0490    -6.9110 c3         1 FXE       0.131700
     25 HAA1        -0.3610    -0.8950     0.4910 h1         1 FXE       0.044033
     26 HAA2        -0.3610     0.8730     0.5300 h1         1 FXE       0.044033
     27 HAA3        -0.3610     0.0220    -1.0210 h1         1 FXE       0.044033
     28 HAD          0.2170     0.0110     2.3140 ha         1 FXE       0.136000
     29 HAN          1.3260     0.0120     4.5130 ha         1 FXE       0.132000
     30 HAO          3.7740     0.0020     4.6760 ha         1 FXE       0.132000
     31 HAV1         6.3510    -0.8780     3.9740 h1         1 FXE       0.052033
     32 HAV2         6.3700     0.8910     3.9570 h1         1 FXE       0.052033
     33 HAV3         7.4410    -0.0160     2.8800 h1         1 FXE       0.052033
     34 HAH          3.4360     0.0360    -1.4930 hn         1 FXE       0.341500
     35 HAJ          4.3650    -0.1090    -3.6370 hn         1 FXE       0.325500
     36 HAL          7.6650    -1.0390    -2.7710 ha         1 FXE       0.176000
     37 HAM          9.6330    -0.8720    -4.2460 ha         1 FXE       0.135000
     38 HAU          9.4790     0.3520    -6.3780 ha         1 FXE       0.129000
     39 HAT          7.3570     1.4100    -7.0480 ha         1 FXE       0.135000
     40 HAX1         5.8500     2.8510    -6.8910 h1         1 FXE       0.041367
     41 HAX2         4.1350     2.4610    -7.0850 h1         1 FXE       0.041367
     42 HAX3         5.3690     1.3560    -7.7060 h1         1 FXE       0.041367
@<TRIPOS>BOND
     1     1     2 1
     2     2     3 1
     3     3     4 ar
     4     3     5 ar
     5     4     8 ar
     6     4    12 1
     7     5     6 ar
     8     6     7 ar
     9     7     8 ar
    10     8     9 1
    11     9    10 1
    12     9    11 1
    13    11    12 2
    14    12    13 1
    15    13    14 1
    16    14    15 2
    17    14    16 1
    18    16    17 1
    19    17    18 ar
    20    17    22 ar
    21    18    19 ar
    22    19    20 ar
    23    20    21 ar
    24    21    22 ar
    25    22    23 1
    26    23    24 1
    27     1    25 1
    28     1    26 1
    29     1    27 1
    30     5    28 1
    31     6    29 1
    32     7    30 1
    33    10    31 1
    34    10    32 1
    35    10    33 1
    36    13    34 1
    37    16    35 1
    38    18    36 1
    39    19    37 1
    40    20    38 1
    41    21    39 1
    42    24    40 1
    43    24    41 1
    44    24    42 1
@<TRIPOS>SUBSTRUCTURE
     1 FXE         1 TEMP              0 ****  ****    0 ROOT
