@<TRIPOS>MOLECULE
FXG
   60    62     1     0     0
SMALL
bcc


@<TRIPOS>ATOM
      1 O18          0.0000     0.0000     0.0000 o          1 FXG      -0.617100
      2 C16          1.2130     0.0000     0.0000 c          1 FXG       0.557100
      3 C15          1.9670     0.0000     1.3050 c3         1 FXG      -0.098400
      4 C14          0.9710     0.0010     2.4680 c3         1 FXG      -0.016400
      5 C13          1.7370     0.0020     3.7940 c3         1 FXG      -0.025400
      6 C12          0.7420     0.0020     4.9560 c3         1 FXG      -0.040400
      7 C11          1.5070     0.0030     6.2810 c3         1 FXG       0.155800
      8 N10          0.5550     0.0040     7.3950 nu         1 FXG      -0.468900
      9 C6           1.0160     0.0050     8.7000 ca         1 FXG       0.607200
     10 C1           0.1170    -0.0010     9.7800 ca         1 FXG      -0.244200
     11 C2           0.6450     0.0010    11.0810 ca         1 FXG       0.251800
     12 N9          -0.4350    -0.0040    11.9270 na         1 FXG       0.176000
     13 C8          -1.5590    -0.0080    11.1560 cc         1 FXG       0.215700
     14 N7          -1.2330    -0.0060     9.8960 nd         1 FXG      -0.489100
     15 N3           1.9640     0.0070    11.2440 nb         1 FXG      -0.687000
     16 C4           2.7680     0.0110    10.2010 ca         1 FXG       0.694900
     17 N5           2.3190     0.0050     8.9600 nb         1 FXG      -0.748000
     18 N17          1.8880    -0.0070    -1.1670 ns         1 FXG      -0.042100
     19 C19          1.1920    -0.1250    -2.3760 ca         1 FXG      -0.094400
     20 C20          1.6640     0.5180    -3.5140 ca         1 FXG      -0.120000
     21 C21          0.9810     0.4050    -4.7110 ca         1 FXG      -0.089000
     22 C22         -0.1740    -0.3470    -4.7830 ca         1 FXG      -0.105000
     23 C23         -0.6570    -0.9960    -3.6460 ca         1 FXG      -0.132600
     24 C24          0.0360    -0.8860    -2.4390 ca         1 FXG      -0.039000
     25 C25         -1.8940    -1.8020    -3.7190 c          1 FXG       0.594700
     26 O27         -2.3120    -2.3670    -2.7270 o          1 FXG      -0.641100
     27 N26         -2.5580    -1.9110    -4.8870 ns         1 FXG      -0.205900
     28 C28         -3.7850    -2.7090    -4.9600 c3         1 FXG       0.051000
     29 C29         -4.3360    -2.6670    -6.3870 c3         1 FXG      -0.044400
     30 C30         -5.6170    -3.5000    -6.4640 c3         1 FXG      -0.021400
     31 C31         -6.1670    -3.4580    -7.8900 c3         1 FXG       0.005900
     32 H15          2.5890    -0.8850     1.3630 hc         1 FXG       0.028200
     33 H15A         2.5900     0.8840     1.3620 hc         1 FXG       0.028200
     34 H14          0.3490     0.8860     2.4100 hc         1 FXG       0.032700
     35 H14A         0.3480    -0.8830     2.4110 hc         1 FXG       0.032700
     36 H13          2.3600    -0.8830     3.8520 hc         1 FXG       0.015200
     37 H13A         2.3600     0.8860     3.8510 hc         1 FXG       0.015200
     38 H12          0.1190     0.8860     4.8970 hc         1 FXG       0.022200
     39 H12A         0.1200    -0.8830     4.8990 hc         1 FXG       0.022200
     40 H11          2.1300    -0.8810     6.3390 h1         1 FXG       0.027200
     41 H11A         2.1300     0.8880     6.3380 h1         1 FXG       0.027200
     42 HN10        -0.4290     0.0080     7.2120 hn         1 FXG       0.310800
     43 H8          -2.5730    -0.0130    11.5350 h5         1 FXG       0.030800
     44 H4           3.8380     0.0110    10.3690 h5         1 FXG      -0.005900
     45 HN17         2.8700     0.1840    -1.1750 hn         1 FXG       0.167500
     46 H20          2.5700     1.1090    -3.4640 ha         1 FXG       0.104000
     47 H21          1.3530     0.9080    -5.5950 ha         1 FXG       0.104000
     48 H22         -0.7080    -0.4310    -5.7220 ha         1 FXG       0.101000
     49 H24         -0.3340    -1.3880    -1.5530 ha         1 FXG       0.162000
     50 HN26        -2.1980    -1.4700    -5.7110 hn         1 FXG       0.179500
     51 H28         -4.5210    -2.3030    -4.2770 h1         1 FXG       0.027700
     52 H28A        -3.5650    -3.7340    -4.6880 h1         1 FXG       0.027700
     53 H29         -3.6000    -3.0730    -7.0700 hc         1 FXG       0.015700
     54 H29A        -4.5550    -1.6420    -6.6600 hc         1 FXG       0.015700
     55 H30A        -6.3530    -3.0940    -5.7810 hc         1 FXG       0.016200
     56 H31B        -6.3860    -2.4330    -8.1630 hc         1 FXG       0.001367
     57 H31A        -5.4310    -3.8640    -8.5740 hc         1 FXG       0.001367
     58 HN9         -0.4030    -0.0040    12.9280 hn         1 FXG       0.132700
     59 H30B        -5.3980    -4.5250    -6.1920 hc         1 FXG       0.016200
     60 H31C        -7.0750    -4.0480    -7.9450 hc         1 FXG       0.001367
@<TRIPOS>BOND
     1     1     2 2   
     2     2     3 1   
     3     2    18 1   
     4     3     4 1   
     5     3    32 1   
     6     3    33 1   
     7     4     5 1   
     8     4    34 1   
     9     4    35 1   
    10     5     6 1   
    11     5    36 1   
    12     5    37 1   
    13     6     7 1   
    14     6    38 1   
    15     6    39 1   
    16     7     8 1   
    17     7    40 1   
    18     7    41 1   
    19     8     9 1   
    20     8    42 1   
    21     9    10 ar  
    22     9    17 ar  
    23    10    11 ar  
    24    10    14 1   
    25    11    12 1   
    26    11    15 ar  
    27    12    13 1   
    28    12    58 1   
    29    13    14 2   
    30    13    43 1   
    31    15    16 ar  
    32    16    17 ar  
    33    16    44 1   
    34    18    19 1   
    35    18    45 1   
    36    19    20 ar  
    37    19    24 ar  
    38    20    21 ar  
    39    20    46 1   
    40    21    22 ar  
    41    21    47 1   
    42    22    23 ar  
    43    22    48 1   
    44    23    24 ar  
    45    23    25 1   
    46    24    49 1   
    47    25    26 2   
    48    25    27 1   
    49    27    28 1   
    50    27    50 1   
    51    28    29 1   
    52    28    51 1   
    53    28    52 1   
    54    29    30 1   
    55    29    53 1   
    56    29    54 1   
    57    30    31 1   
    58    30    55 1   
    59    30    59 1   
    60    31    56 1   
    61    31    57 1   
    62    31    60 1   
@<TRIPOS>SUBSTRUCTURE
     1 FXG         1 TEMP              0 ****  ****    0 ROOT
