@<TRIPOS>MOLECULE
FXI
   67    70     1     0     0
SMALL
bcc


@<TRIPOS>ATOM
      1 N1           0.0000     0.0000     0.0000 ns         1 FXI       0.000900
      2 C1           1.3480     0.0000     0.0000 c          1 FXI       0.616100
      3 O1           1.9540     0.0000     1.0500 o          1 FXI      -0.635100
      4 C2          -0.2270    -3.3650    -3.8460 ca         1 FXI      -0.077400
      5 C3          -1.4030    -3.5860    -4.5500 ca         1 FXI      -0.110500
      6 C4          -1.9160    -4.8640    -4.6490 ca         1 FXI      -0.079500
      7 C5          -1.2610    -5.9240    -4.0460 ca         1 FXI      -0.047600
      8 C6          -0.0890    -5.7060    -3.3430 ca         1 FXI      -0.079500
      9 C7           0.4290    -4.4290    -3.2410 ca         1 FXI      -0.110500
     10 C8           2.0270     0.5120    -4.6400 c3         1 FXI      -0.067400
     11 C9           3.5800    -0.3910    -1.2670 cx         1 FXI      -0.045900
     12 C10          2.1010     0.0000    -1.3050 cx         1 FXI      -0.141600
     13 N2           1.3250    -0.4000    -2.4820 n          1 FXI      -0.144800
     14 C11          0.9960     0.5870    -3.5130 c3         1 FXI       0.034000
     15 C12          0.9150    -1.6770    -2.6160 c          1 FXI       0.577100
     16 O2           1.1020    -2.4740    -1.7180 o          1 FXI      -0.674100
     17 N3           0.2990    -2.0710    -3.7490 ns         1 FXI      -0.061100
     18 Cl1         -1.9100    -7.5290    -4.1720 cl         1 FXI      -0.031400
     19 C13          2.7140     1.4680    -6.8440 c3         1 FXI       0.007900
     20 C26          1.6830     1.5440    -5.7170 c3         1 FXI      -0.023400
     21 C14         -0.0870     0.3170     2.3920 ca         1 FXI      -0.137000
     22 C15         -0.7000    -0.0790     1.2100 ca         1 FXI      -0.102400
     23 C16         -2.0080    -0.5530     1.2260 ca         1 FXI       0.062900
     24 C17         -2.6990    -0.6300     2.4180 ca         1 FXI      -0.053000
     25 C18         -2.0850    -0.2330     3.6050 cp         1 FXI      -0.112000
     26 C19         -0.7730     0.2350     3.5860 ca         1 FXI      -0.076000
     27 F1          -2.6020    -0.9370     0.0750 f          1 FXI      -0.125900
     28 C20         -2.3760    -1.1570     5.9040 ca         1 FXI      -0.119000
     29 C21         -2.8260    -0.3140     4.8890 cp         1 FXI       0.072000
     30 C22         -3.9730     0.4520     5.0830 ca         1 FXI      -0.146500
     31 C25         -4.6580     0.3720     6.2790 ca         1 FXI       0.007000
     32 C23         -4.2080    -0.4650     7.2830 ca         1 FXI      -0.134000
     33 C24         -3.0710    -1.2310     7.0940 ca         1 FXI      -0.049000
     34 S1          -4.5490     1.5200     3.8060 sy         1 FXI       0.874300
     35 C27          3.1790     1.0680    -1.4990 cx         1 FXI      -0.045900
     36 O4          -4.6500     0.6790     2.6650 o          1 FXI      -0.592800
     37 O3          -5.6990     2.1420     4.3610 o          1 FXI      -0.592800
     38 C29         -3.2140     2.7280     3.5880 c3         1 FXI       0.017700
     39 HN1         -0.5000     0.0550    -0.8650 hn         1 FXI       0.173500
     40 H3          -1.9160    -2.7570    -5.0230 ha         1 FXI       0.128500
     41 H4          -2.8340    -5.0380    -5.1980 ha         1 FXI       0.115000
     42 H6           0.4230    -6.5370    -2.8720 ha         1 FXI       0.115000
     43 H7           1.3470    -4.2590    -2.6910 ha         1 FXI       0.128500
     44 H81          3.0130     0.7210    -4.2420 hc         1 FXI       0.028700
     45 H82          2.0160    -0.4800    -5.0750 hc         1 FXI       0.028700
     46 H91          3.9790    -0.6160    -0.2850 hc         1 FXI       0.060700
     47 H92          3.9470    -0.9190    -2.1390 hc         1 FXI       0.060700
     48 H111         0.0100     0.3780    -3.9110 h1         1 FXI       0.029200
     49 H112         1.0070     1.5800    -3.0780 h1         1 FXI       0.029200
     50 HN3          0.1180    -1.4050    -4.4730 hn         1 FXI       0.174500
     51 H131         3.6990     1.6840    -6.4470 hc         1 FXI       0.004033
     52 H132         2.7080     0.4730    -7.2720 hc         1 FXI       0.004033
     53 H133         2.4660     2.1930    -7.6100 hc         1 FXI       0.004033
     54 H261         0.6970     1.3360    -6.1140 hc         1 FXI       0.013200
     55 H262         1.6950     2.5360    -5.2830 hc         1 FXI       0.013200
     56 H14          0.9330     0.6810     2.3770 ha         1 FXI       0.175000
     57 H17         -3.7190    -0.9960     2.4320 ha         1 FXI       0.175000
     58 H19         -0.2940     0.5440     4.5080 ha         1 FXI       0.109000
     59 H20         -1.4860    -1.7570     5.7570 ha         1 FXI       0.117000
     60 H25         -5.5490     0.9690     6.4320 ha         1 FXI       0.132000
     61 H23         -4.7490    -0.5260     8.2190 ha         1 FXI       0.109000
     62 H24         -2.7220    -1.8860     7.8830 ha         1 FXI       0.103000
     63 H271         3.3340     1.7340    -0.6590 hc         1 FXI       0.060700
     64 H272         3.3020     1.4310    -2.5120 hc         1 FXI       0.060700
     65 H291        -2.8940     2.7310     2.5530 h1         1 FXI       0.065700
     66 H292        -2.3780     2.4600     4.2230 h1         1 FXI       0.065700
     67 H293        -3.5710     3.7140     3.8590 h1         1 FXI       0.065700
@<TRIPOS>BOND
     1     1     2 1   
     2     1    22 1   
     3     1    39 1   
     4     2     3 2   
     5     2    12 1   
     6     4     5 ar  
     7     4     9 ar  
     8     4    17 1   
     9     5     6 ar  
    10     5    40 1   
    11     6     7 ar  
    12     6    41 1   
    13     7     8 ar  
    14     7    18 1   
    15     8     9 ar  
    16     8    42 1   
    17     9    43 1   
    18    10    14 1   
    19    10    20 1   
    20    10    44 1   
    21    10    45 1   
    22    11    12 1   
    23    11    35 1   
    24    11    46 1   
    25    11    47 1   
    26    12    13 1   
    27    12    35 1   
    28    13    14 1   
    29    13    15 1   
    30    14    48 1   
    31    14    49 1   
    32    15    16 2   
    33    15    17 1   
    34    17    50 1   
    35    19    20 1   
    36    19    51 1   
    37    19    52 1   
    38    19    53 1   
    39    20    54 1   
    40    20    55 1   
    41    21    22 ar  
    42    21    26 ar  
    43    21    56 1   
    44    22    23 ar  
    45    23    24 ar  
    46    23    27 1   
    47    24    25 ar  
    48    24    57 1   
    49    25    26 ar  
    50    25    29 1   
    51    26    58 1   
    52    28    29 ar  
    53    28    33 ar  
    54    28    59 1   
    55    29    30 ar  
    56    30    31 ar  
    57    30    34 1   
    58    31    32 ar  
    59    31    60 1   
    60    32    33 ar  
    61    32    61 1   
    62    33    62 1   
    63    34    36 2   
    64    34    37 2   
    65    34    38 1   
    66    35    63 1   
    67    35    64 1   
    68    38    65 1   
    69    38    66 1   
    70    38    67 1   
@<TRIPOS>SUBSTRUCTURE
     1 FXI         1 TEMP              0 ****  ****    0 ROOT
