@<TRIPOS>MOLECULE
molecule
   48    50     1     0     0
SMALL
bcc


@<TRIPOS>ATOM
      1 C10          0.0000     0.0000     0.0000 ca         1 FXJ      -0.027900
      2 C15         -4.1410     1.2610     1.2140 ca         1 FXJ      -0.177600
      3 C17         -6.2760     0.1590     1.2280 ca         1 FXJ      -0.207000
      4 C20         -8.8500     2.7660     1.2470 c3         1 FXJ       0.126700
      5 C21         -6.1580     2.5660     1.2210 ca         1 FXJ      -0.207000
      6 C22         -4.7830     2.5030     1.2170 ca         1 FXJ      -0.026500
      7 C24         -2.3340    -2.9950     5.4440 ca         1 FXJ      -0.080600
      8 O01         -2.1420    -0.7130     5.9070 o          1 FXJ      -0.559100
      9 C02         -1.8840    -1.6200     5.1390 c          1 FXJ       0.665700
     10 N03         -1.1900    -1.3720     4.0120 ns         1 FXJ      -0.574900
     11 C04         -0.7450    -0.0100     3.7100 c3         1 FXJ       0.169300
     12 C05          0.0050    -0.0040     2.4020 ca         1 FXJ      -0.116300
     13 C06          1.3860     0.0020     2.3970 ca         1 FXJ      -0.070000
     14 C07          2.0740     0.0000     1.1970 ca         1 FXJ      -0.024900
     15 Br1          3.9660     0.0070     1.1940 br         1 FXJ      -0.075100
     16 C09          1.3810     0.0000     0.0000 ca         1 FXJ      -0.062000
     17 Br2         -0.9470    -0.0010    -1.6360 br         1 FXJ      -0.059100
     18 C12         -0.6930    -0.0050     1.2030 ca         1 FXJ       0.161100
     19 O13         -2.0530    -0.0090     1.2060 os         1 FXJ      -0.338200
     20 C14         -2.6680     1.1890     1.2100 c          1 FXJ       0.658700
     21 C16         -4.9010     0.0870     1.2190 ca         1 FXJ      -0.026500
     22 C18         -6.9090     1.3960     1.2310 ca         1 FXJ       0.181100
     23 O19         -8.2640     1.4620     1.2450 os         1 FXJ      -0.321900
     24 O23         -2.0100     2.2110     1.2090 o          1 FXJ      -0.531000
     25 C25         -3.6840    -3.2550     5.6820 ca         1 FXJ      -0.117200
     26 N26         -4.6710    -2.1540     5.6340 no         1 FXJ       0.289200
     27 O27         -5.8270    -2.3560     5.9560 o          1 FXJ      -0.188500
     28 O28         -4.3260    -1.0420     5.2730 o          1 FXJ      -0.188500
     29 C29         -4.0970    -4.5420     5.9600 ca         1 FXJ      -0.074000
     30 C30         -3.1770    -5.5730     6.0040 ca         1 FXJ      -0.121000
     31 C31         -1.8360    -5.3220     5.7710 ca         1 FXJ      -0.094000
     32 C32         -1.4100    -4.0400     5.4910 ca         1 FXJ      -0.116000
     33 H1          -6.8650    -0.7500     1.2340 ha         1 FXJ       0.147000
     34 H2          -8.5410     3.3020     0.3580 h1         1 FXJ       0.045367
     35 H3          -8.5230     3.3070     2.1270 h1         1 FXJ       0.045367
     36 H4          -9.9290     2.6760     1.2580 h1         1 FXJ       0.045367
     37 H5          -6.6550     3.5280     1.2240 ha         1 FXJ       0.147000
     38 H6          -4.1980     3.4150     1.2090 ha         1 FXJ       0.152500
     39 H7          -0.9570    -2.1230     3.3930 hn         1 FXJ       0.318500
     40 H8          -0.0930     0.3400     4.5010 h1         1 FXJ       0.071700
     41 H9          -1.6050     0.6440     3.6360 h1         1 FXJ       0.071700
     42 H10          1.9300     0.0130     3.3340 ha         1 FXJ       0.156000
     43 H11          1.9230    -0.0010    -0.9380 ha         1 FXJ       0.163000
     44 H12         -4.4080    -0.8780     1.2160 ha         1 FXJ       0.152500
     45 H13         -5.1450    -4.7450     6.1440 ha         1 FXJ       0.170000
     46 H14         -3.5070    -6.5810     6.2230 ha         1 FXJ       0.150000
     47 H15         -1.1200    -6.1340     5.8070 ha         1 FXJ       0.146000
     48 H16         -0.3600    -3.8450     5.3080 ha         1 FXJ       0.151000
@<TRIPOS>BOND
     1     8     9 2
     2    28    26 1
     3    24    20 2
     4    26    27 1
     5    26    25 1
     6     9     7 1
     7     9    10 1
     8    25     7 ar
     9    25    29 ar
    10    15    14 1
    11    21     3 ar
    12    21     2 ar
    13    13    14 ar
    14    13    12 ar
    15     7    32 ar
    16    14    16 ar
    17    29    30 ar
    18    20     2 1
    19    20    19 1
    20    12    11 1
    21    12    18 ar
    22    11    10 1
    23    16     1 ar
    24     3    22 ar
    25    32    31 ar
    26    18     1 ar
    27    18    19 1
    28     2     6 ar
    29    30    31 ar
    30     1    17 1
    31    22    23 1
    32    22     5 ar
    33     6     5 ar
    34    23     4 1
    35     3    33 1
    36     4    34 1
    37     4    35 1
    38     4    36 1
    39     5    37 1
    40     6    38 1
    41    10    39 1
    42    11    40 1
    43    11    41 1
    44    13    42 1
    45    16    43 1
    46    21    44 1
    47    29    45 1
    48    30    46 1
    49    31    47 1
    50    32    48 1
@<TRIPOS>SUBSTRUCTURE
     1 FXJ         1 TEMP              0 ****  ****    0 ROOT
