@<TRIPOS>MOLECULE
FXM
   70    71     1     0     0
SMALL
bcc


@<TRIPOS>ATOM
      1 C1           0.0000     0.0000     0.0000 c2         1 FXM      -0.304400
      2 C2           1.3120     0.0000     0.0000 ce         1 FXM       0.041800
      3 N3           2.1530     0.0000     1.1060 nu         1 FXM      -0.352000
      4 C4           1.6390    -0.3220     2.4450 c3         1 FXM       0.233600
      5 S5           0.0700     0.5830     2.6520 ss         1 FXM      -0.367200
      6 C6          -0.8760    -0.0180     1.2190 c3         1 FXM       0.175900
      7 C7           2.6420     0.1250     3.5110 c3         1 FXM      -0.153300
      8 C8           1.9680    -0.0010    -1.3210 c          1 FXM       0.680300
      9 O9           2.1830    -1.1650    -1.9650 os         1 FXM      -0.430900
     10 O10          2.3150     1.0480    -1.8280 o          1 FXM      -0.522000
     11 C11          2.8560     1.6130     3.4060 c          1 FXM       0.601900
     12 O12          2.6000     2.3280     4.3450 o          1 FXM      -0.430100
     13 N14          2.1200    -0.2010     4.8400 ns         1 FXM      -0.200900
     14 O15          4.1600    -0.1860     5.7190 o          1 FXM      -0.634100
     15 C16         -0.6870     0.0270    -1.3410 c3         1 FXM       0.315600
     16 O17         -1.5430    -1.1390    -1.4700 os         1 FXM      -0.382900
     17 C18         -2.1550    -1.3210    -2.6540 c          1 FXM       0.429100
     18 N19         -2.9630    -2.3830    -2.8410 nz         1 FXM       0.251600
     19 O20         -1.9800    -0.5260    -3.5570 o          1 FXM      -0.453000
     20 C21          2.3370     0.1640     8.2960 cc         1 FXM       0.387100
     21 N22          1.9760    -0.1940     9.5270 nc         1 FXM      -0.568000
     22 C23          1.9140     0.7480    10.4170 cd         1 FXM       0.571300
     23 S24          2.3490     2.2840     9.6760 ss         1 FXM      -0.367300
     24 C25          2.5940     1.4740     8.1300 cd         1 FXM      -0.077400
     25 C26          2.8340    -1.0900    -3.2620 c3         1 FXM       0.456200
     26 C27          5.0140    -1.8360    -2.6540 c          1 FXM       0.703100
     27 O28          4.2480    -0.8190    -3.0780 os         1 FXM      -0.409900
     28 O29          4.5180    -2.9170    -2.4420 o          1 FXM      -0.577000
     29 C30          6.4910    -1.6290    -2.4410 c3         1 FXM      -0.115000
     30 C31          7.1250    -2.9370    -1.9590 c3         1 FXM       0.012900
     31 C32          7.1410    -1.2030    -3.7590 c3         1 FXM       0.012900
     32 C33          6.7080    -0.5400    -1.3890 c3         1 FXM       0.012900
     33 C34          2.4530    -0.8130     7.1870 ce         1 FXM      -0.244000
     34 C35          2.0890    -2.0910     7.3760 c2         1 FXM      -0.081200
     35 C36          2.3290    -3.1120     6.2950 c3         1 FXM      -0.001200
     36 C37          3.1310    -4.2830     6.8680 c3         1 FXM       0.013900
     37 N38          1.5590     0.5710    11.7440 nv         1 FXM      -0.560500
     38 HN3          3.1220     0.2220     0.9890 hn         1 FXM       0.313800
     39 H4           1.4610    -1.3880     2.5230 h2         1 FXM       0.057700
     40 H6          -0.5780    -0.9980     1.5710 h1         1 FXM       0.058700
     41 H6A         -1.9400     0.1750     1.1510 h1         1 FXM       0.058700
     42 H7           3.5840    -0.3870     3.3570 h1         1 FXM       0.089700
     43 H11          3.8630     1.2480     3.2450 h4         1 FXM       0.005200
     44 HN14         1.1320    -0.2500     4.9910 hn         1 FXM       0.203500
     45 H16          0.0570     0.0170    -2.1290 h1         1 FXM       0.037700
     46 H16A        -1.2870     0.9260    -1.4220 h1         1 FXM       0.037700
     47 HN19        -3.8420    -2.2170    -2.3930 hn         1 FXM       0.248800
     48 HN1A        -2.5370    -3.1990    -2.4470 hn         1 FXM       0.248800
     49 H25          2.8990     1.9490     7.2060 h4         1 FXM       0.168000
     50 H26          2.3860    -0.2940    -3.8450 h2         1 FXM       0.032700
     51 H26A         2.7110    -2.0320    -3.7820 h2         1 FXM       0.032700
     52 H31          6.6550    -3.2460    -1.0340 hc         1 FXM       0.014922
     53 H31A         8.1840    -2.7850    -1.7930 hc         1 FXM       0.014922
     54 H31B         6.9840    -3.7050    -2.7100 hc         1 FXM       0.014922
     55 H32          6.7910    -0.2150    -4.0310 hc         1 FXM       0.014922
     56 H32A         6.8750    -1.9080    -4.5370 hc         1 FXM       0.014922
     57 H32B         8.2180    -1.1840    -3.6410 hc         1 FXM       0.014922
     58 H33          7.7690    -0.4190    -1.2080 hc         1 FXM       0.014922
     59 H33A         6.2140    -0.8240    -0.4680 hc         1 FXM       0.014922
     60 H33B         6.2950     0.3950    -1.7470 hc         1 FXM       0.014922
     61 H35          1.7100    -2.4070     8.3410 ha         1 FXM       0.135000
     62 H36          2.8850    -2.6560     5.4850 hc         1 FXM       0.012200
     63 H36A         1.3780    -3.4740     5.9220 hc         1 FXM       0.012200
     64 H37          2.5220    -4.8210     7.5840 hc         1 FXM       0.007700
     65 H37A         3.4190    -4.9510     6.0650 hc         1 FXM       0.007700
     66 H37B         4.0190    -3.9060     7.3600 hc         1 FXM       0.007700
     67 HN38         2.2500     0.2980    12.4150 hn         1 FXM       0.279300
     68 HN3A         0.6120     0.7170    12.0330 hn         1 FXM       0.279300
     69 C13          2.9690    -0.3810     5.8720 c          1 FXM       0.615300
     70 H193        -3.1030    -2.5280    -3.8210 hn         1 FXM       0.248800
@<TRIPOS>BOND
     1     1     2 2   
     2     1     6 1   
     3     1    15 1   
     4     2     3 1   
     5     2     8 1   
     6     3     4 1   
     7     3    38 1   
     8     4     5 1   
     9     4     7 1   
    10     4    39 1   
    11     5     6 1   
    12     6    40 1   
    13     6    41 1   
    14     7    11 1   
    15     7    13 1   
    16     7    42 1   
    17     8     9 1   
    18     8    10 2   
    19     9    25 1   
    20    11    12 2   
    21    11    43 1   
    22    13    44 1   
    23    13    69 1   
    24    14    69 2   
    25    15    16 1   
    26    15    45 1   
    27    15    46 1   
    28    16    17 1   
    29    17    18 1   
    30    17    19 2   
    31    18    47 1   
    32    18    48 1   
    33    18    70 1   
    34    20    21 1   
    35    20    24 2   
    36    20    33 1   
    37    21    22 2   
    38    22    23 1   
    39    22    37 1   
    40    23    24 1   
    41    24    49 1   
    42    25    27 1   
    43    25    50 1   
    44    25    51 1   
    45    26    27 1   
    46    26    28 2   
    47    26    29 1   
    48    29    30 1   
    49    29    31 1   
    50    29    32 1   
    51    30    52 1   
    52    30    53 1   
    53    30    54 1   
    54    31    55 1   
    55    31    56 1   
    56    31    57 1   
    57    32    58 1   
    58    32    59 1   
    59    32    60 1   
    60    33    34 2   
    61    33    69 1   
    62    34    35 1   
    63    34    61 1   
    64    35    36 1   
    65    35    62 1   
    66    35    63 1   
    67    36    64 1   
    68    36    65 1   
    69    36    66 1   
    70    37    67 1   
    71    37    68 1   
@<TRIPOS>SUBSTRUCTURE
     1 FXM         1 TEMP              0 ****  ****    0 ROOT
