@<TRIPOS>MOLECULE
molecule
   70    71     1     0     0
SMALL
bcc


@<TRIPOS>ATOM
      1 C1           0.0000     0.0000     0.0000 c2         1 FXM      -0.260400
      2 C2           1.3120     0.0000     0.0000 ce         1 FXM       0.196800
      3 N3           2.1530     0.0000     1.1060 nu         1 FXM      -0.779000
      4 C4           1.6390    -0.3220     2.4450 c3         1 FXM       0.314600
      5 S5           0.0700     0.5830     2.6520 ss         1 FXM      -0.308200
      6 C6          -0.8760    -0.0180     1.2190 c3         1 FXM       0.080900
      7 C7           2.6420     0.1250     3.5110 c3         1 FXM      -0.038300
      8 C8           1.9680    -0.0010    -1.3210 c          1 FXM       0.606300
      9 O9           2.1830    -1.1650    -1.9650 os         1 FXM      -0.435900
     10 O10          2.3150     1.0480    -1.8280 o          1 FXM      -0.482000
     11 C11          2.8560     1.6130     3.4060 c          1 FXM       0.547900
     12 O12          2.6000     2.3280     4.3450 o          1 FXM      -0.414100
     13 N14          2.1200    -0.2010     4.8400 ns         1 FXM      -0.584900
     14 O15          4.1600    -0.1860     5.7190 o          1 FXM      -0.583100
     15 C16         -0.6870     0.0270    -1.3410 c3         1 FXM       0.221600
     16 O17         -1.5430    -1.1390    -1.4700 os         1 FXM      -0.394900
     17 C18         -2.1550    -1.3210    -2.6540 c          1 FXM       0.572100
     18 N19         -2.9630    -2.3830    -2.8410 nz         1 FXM      -0.652400
     19 O20         -1.9800    -0.5260    -3.5570 o          1 FXM      -0.434000
     20 C21          2.3370     0.1640     8.2960 cc         1 FXM       0.414100
     21 N22          1.9760    -0.1940     9.5270 nc         1 FXM      -0.641000
     22 C23          1.9140     0.7480    10.4170 cd         1 FXM       0.726300
     23 S24          2.3490     2.2840     9.6760 ss         1 FXM      -0.267300
     24 C25          2.5940     1.4740     8.1300 cd         1 FXM      -0.139400
     25 C26          2.8340    -1.0900    -3.2620 c3         1 FXM       0.351200
     26 C27          5.0140    -1.8360    -2.6540 c          1 FXM       0.637100
     27 O28          4.2480    -0.8190    -3.0780 os         1 FXM      -0.420900
     28 O29          4.5180    -2.9170    -2.4420 o          1 FXM      -0.537000
     29 C30          6.4910    -1.6290    -2.4410 c3         1 FXM      -0.106000
     30 C31          7.1250    -2.9370    -1.9590 c3         1 FXM      -0.081433
     31 C32          7.1410    -1.2030    -3.7590 c3         1 FXM      -0.081433
     32 C33          6.7080    -0.5400    -1.3890 c3         1 FXM      -0.081433
     33 C34          2.4530    -0.8130     7.1870 ce         1 FXM      -0.074000
     34 C35          2.0890    -2.0910     7.3760 c2         1 FXM      -0.359200
     35 C36          2.3290    -3.1120     6.2950 c3         1 FXM      -0.111200
     36 C37          3.1310    -4.2830     6.8680 c3         1 FXM      -0.050100
     37 N38          1.5590     0.5710    11.7440 nv         1 FXM      -1.023500
     38 HN3          3.1220     0.2230     0.9890 hn         1 FXM       0.467800
     39 H4           1.4610    -1.3880     2.5230 h2         1 FXM       0.079700
     40 H6          -0.5780    -0.9980     1.5710 h1         1 FXM       0.088700
     41 H6A         -1.9400     0.1750     1.1510 h1         1 FXM       0.088700
     42 H7           3.5840    -0.3870     3.3570 h1         1 FXM       0.118700
     43 H11          3.8630     1.2480     3.2450 h4         1 FXM       0.026200
     44 HN14         1.1320    -0.2570     4.9900 hn         1 FXM       0.332500
     45 H16         -1.2870     0.9260    -1.4220 h1         1 FXM       0.082200
     46 H16A         0.0570     0.0170    -2.1280 h1         1 FXM       0.082200
     47 HN19        -3.4580    -2.5780    -1.9930 hn         1 FXM       0.491133
     48 HN1A        -3.6170    -2.1820    -3.5710 hn         1 FXM       0.491133
     49 H25          2.8990     1.9490     7.2060 h4         1 FXM       0.190000
     50 H26          2.7110    -2.0320    -3.7820 h2         1 FXM       0.093200
     51 H26A         2.3860    -0.2940    -3.8450 h2         1 FXM       0.093200
     52 H31          6.6690    -3.2350    -1.0230 hc         1 FXM       0.049589
     53 H31A         8.1880    -2.7900    -1.8130 hc         1 FXM       0.049589
     54 H31B         6.9650    -3.7100    -2.7010 hc         1 FXM       0.049589
     55 H32          6.8960    -1.9210    -4.5320 hc         1 FXM       0.049589
     56 H32A         6.7710    -0.2250    -4.0440 hc         1 FXM       0.049589
     57 H32B         8.2160    -1.1600    -3.6340 hc         1 FXM       0.049589
     58 H33          7.7690    -0.4190    -1.2080 hc         1 FXM       0.049589
     59 H33A         6.2150    -0.8240    -0.4680 hc         1 FXM       0.049589
     60 H33B         6.2940     0.3950    -1.7470 hc         1 FXM       0.049589
     61 H35          1.4040    -2.2140     6.5460 ha         1 FXM       0.310000
     62 H36          1.3780    -3.4740     5.9220 hc         1 FXM       0.025200
     63 H36A         2.8850    -2.6560     5.4850 hc         1 FXM       0.025200
     64 H37          4.0090    -3.9040     7.3780 hc         1 FXM       0.047367
     65 H37A         3.4370    -4.9400     6.0620 hc         1 FXM       0.047367
     66 H37B         2.5150    -4.8340     7.5690 hc         1 FXM       0.047367
     67 HN38         0.5980     0.6320    12.0180 hn         1 FXM       0.448300
     68 HN3A         2.2630     0.3740    12.4280 hn         1 FXM       0.448300
     69 C13          2.9690    -0.3810     5.8720 c          1 FXM       0.616300
     70 H193        -2.4130    -3.1780    -3.1010 hn         1 FXM       0.491133
@<TRIPOS>BOND
     1     1     2 2
     2     1     6 1
     3     1    15 1
     4     2     3 1
     5     2     8 1
     6     3     4 1
     7     4     5 1
     8     4     7 1
     9     5     6 1
    10     7    11 1
    11     7    13 1
    12     8     9 1
    13     8    10 2
    14     9    25 1
    15    11    12 2
    16    69    13 1
    17    69    14 2
    18    69    33 1
    19    15    16 1
    20    16    17 1
    21    17    18 1
    22    17    19 2
    23    20    21 1
    24    20    24 2
    25    20    33 1
    26    21    22 2
    27    22    23 1
    28    22    37 1
    29    23    24 1
    30    25    27 1
    31    26    27 1
    32    26    28 2
    33    26    29 1
    34    29    30 1
    35    29    31 1
    36    29    32 1
    37    33    34 2
    38    34    35 1
    39    35    36 1
    40     3    38 1
    41     4    39 1
    42     6    40 1
    43     6    41 1
    44     7    42 1
    45    11    43 1
    46    13    44 1
    47    15    45 1
    48    15    46 1
    49    18    47 1
    50    18    48 1
    51    24    49 1
    52    25    50 1
    53    25    51 1
    54    30    52 1
    55    30    53 1
    56    30    54 1
    57    31    55 1
    58    31    56 1
    59    31    57 1
    60    32    58 1
    61    32    59 1
    62    32    60 1
    63    34    61 1
    64    35    62 1
    65    35    63 1
    66    36    64 1
    67    36    65 1
    68    36    66 1
    69    37    67 1
    70    37    68 1
    71    70    18 1
@<TRIPOS>SUBSTRUCTURE
     1 FXM         1 TEMP              0 ****  ****    0 ROOT
