@<TRIPOS>MOLECULE
molecule
   27    28     1     0     0
SMALL
bcc


@<TRIPOS>ATOM
      1 F18          0.0000     0.0000     0.0000 f          1 FXN      -0.142900
      2 C10          1.3510     0.0000     0.0000 ca         1 FXN       0.103900
      3 C6           2.0300     0.0000     1.1850 ca         1 FXN      -0.112000
      4 C11          2.0400     0.0050    -1.2090 ca         1 FXN      -0.134000
      5 C8           3.4160     0.0040    -1.2320 ca         1 FXN      -0.123000
      6 C12          4.1290    -0.0010    -0.0370 ca         1 FXN      -0.042200
      7 N1           5.4730    -0.0030     0.2570 na         1 FXN      -0.174400
      8 C16          3.4310    -0.0050     1.1850 ca         1 FXN      -0.096800
      9 C5           4.4020    -0.0100     2.2150 cc         1 FXN      -0.102200
     10 C13          5.6280    -0.0080     1.6280 cd         1 FXN      -0.133300
     11 C7           6.9140    -0.0120     2.3420 c          1 FXN       0.695300
     12 O17          6.9340    -0.0170     3.5580 o          1 FXN      -0.582100
     13 N3           8.0690    -0.0100     1.6490 ns         1 FXN      -0.589900
     14 C14          9.3500    -0.0140     2.3580 c3         1 FXN       0.131000
     15 C9          10.4950    -0.0110     1.3440 c3         1 FXN       0.012700
     16 S19         12.0820    -0.0150     2.2230 sh         1 FXN      -0.397900
     17 H6           1.4870    -0.0670     2.1200 ha         1 FXN       0.150000
     18 H11          1.4880     0.0100    -2.1410 ha         1 FXN       0.147000
     19 H8           3.9440     0.0080    -2.1780 ha         1 FXN       0.133000
     20 HN1          6.2170    -0.0010    -0.4130 hn         1 FXN       0.294700
     21 H5           4.2040    -0.0140     3.2800 ha         1 FXN       0.176000
     22 HN3          8.0510    -0.0060     0.6480 hn         1 FXN       0.304500
     23 H141         9.4180    -0.9010     2.9760 h1         1 FXN       0.072700
     24 H142         9.4190     0.8680     2.9830 h1         1 FXN       0.072700
     25 H91         10.4280     0.8760     0.7250 h1         1 FXN       0.058200
     26 H92         10.4270    -0.8930     0.7180 h1         1 FXN       0.058200
     27 H19         13.0760    -0.0130     1.3430 hs         1 FXN       0.221800
@<TRIPOS>BOND
     1     1     2 1
     2     2     3 ar
     3     2     4 ar
     4     3     8 ar
     5     3    17 1
     6     4     5 ar
     7     4    18 1
     8     5     6 ar
     9     5    19 1
    10     6     7 1
    11     6     8 ar
    12     7    10 1
    13     7    20 1
    14     8     9 1
    15     9    10 2
    16     9    21 1
    17    10    11 1
    18    11    12 2
    19    11    13 1
    20    13    14 1
    21    13    22 1
    22    14    15 1
    23    14    23 1
    24    14    24 1
    25    15    16 1
    26    15    25 1
    27    15    26 1
    28    16    27 1
@<TRIPOS>SUBSTRUCTURE
     1 FXN         1 TEMP              0 ****  ****    0 ROOT
