@<TRIPOS>MOLECULE
molecule
   46    48     1     0     0
SMALL
bcc


@<TRIPOS>ATOM
      1 C28          0.0000     0.0000     0.0000 ca         1 FXS      -0.114000
      2 C29          1.3840     0.0000     0.0000 ca         1 FXS      -0.091000
      3 C30          2.0770     0.0000     1.1930 ca         1 FXS      -0.087000
      4 C27         -0.6980     0.0060     1.1950 ca         1 FXS      -0.078000
      5 C26         -0.0180     0.0120     2.3940 ca         1 FXS      -0.115200
      6 C25          1.3780     0.0010     2.4020 ca         1 FXS      -0.063600
      7 C21          2.1150     0.0070     3.6830 c          1 FXS       0.643700
      8 O22          1.9020    -0.8570     4.5100 o          1 FXS      -0.473000
      9 O20          3.0200     0.9710     3.9340 os         1 FXS      -0.332200
     10 C1           3.6610     0.9190     5.1320 ca         1 FXS       0.154100
     11 C2           3.1260     1.5680     6.2370 ca         1 FXS      -0.017900
     12 Br1          1.5040     2.5260     6.0770 br         1 FXS      -0.043100
     13 C3           3.7790     1.5120     7.4530 ca         1 FXS      -0.062000
     14 C4           4.9660     0.8120     7.5700 ca         1 FXS      -0.021900
     15 Br2          5.8580     0.7380     9.2360 br         1 FXS      -0.073100
     16 C5           5.5010     0.1650     6.4710 ca         1 FXS      -0.073000
     17 C6           4.8480     0.2120     5.2540 ca         1 FXS      -0.117300
     18 C7           5.4290    -0.4980     4.0580 c3         1 FXS       0.169300
     19 N8           6.1340     0.4670     3.2120 ns         1 FXS      -0.576900
     20 C9           6.7360     0.0560     2.0790 c          1 FXS       0.661700
     21 O17          6.6950    -1.1170     1.7590 o          1 FXS      -0.558100
     22 C10          7.4470     1.0290     1.2240 ca         1 FXS      -0.080600
     23 C15          7.1520     1.1140    -0.1380 ca         1 FXS      -0.118200
     24 N16          6.1250     0.2290    -0.7310 no         1 FXS       0.292200
     25 O19          5.4460    -0.4830    -0.0110 o          1 FXS      -0.195500
     26 O18          5.9570     0.2120    -1.9370 o          1 FXS      -0.195500
     27 C11          8.4140     1.8730     1.7750 ca         1 FXS      -0.114000
     28 C12          9.0730     2.7800     0.9720 ca         1 FXS      -0.091000
     29 C13          8.7790     2.8540    -0.3780 ca         1 FXS      -0.119000
     30 C14          7.8190     2.0260    -0.9300 ca         1 FXS      -0.073000
     31 N1          -0.7660     0.0180     3.6720 no         1 FXS       0.288200
     32 O2          -0.1700     0.1430     4.7260 o          1 FXS      -0.190000
     33 O3          -1.9780    -0.1020     3.6670 o          1 FXS      -0.190000
     34 H1          -0.5390    -0.0030    -0.9400 ha         1 FXS       0.151000
     35 H2           1.9240    -0.0020    -0.9390 ha         1 FXS       0.157000
     36 H3           3.1600    -0.0040     1.1920 ha         1 FXS       0.172000
     37 H4          -1.7820     0.0100     1.1880 ha         1 FXS       0.171000
     38 H5           3.3620     2.0180     8.3160 ha         1 FXS       0.166000
     39 H6           6.4290    -0.3860     6.5660 ha         1 FXS       0.156000
     40 H7           4.6310    -0.9620     3.4910 h1         1 FXS       0.069200
     41 H8           6.1240    -1.2600     4.3930 h1         1 FXS       0.069200
     42 H9           6.1940     1.4260     3.4910 hn         1 FXS       0.320500
     43 H10          8.6450     1.8150     2.8320 ha         1 FXS       0.152000
     44 H11          9.8250     3.4330     1.3980 ha         1 FXS       0.148000
     45 H12          9.3000     3.5680    -1.0050 ha         1 FXS       0.151000
     46 H13          7.5920     2.0910    -1.9880 ha         1 FXS       0.171000
@<TRIPOS>BOND
     1    32    31 1
     2    31    33 1
     3    31     5 1
     4     5     4 ar
     5     5     6 ar
     6     4     1 ar
     7     8     7 2
     8    12    11 1
     9     6     7 1
    10     6     3 ar
    11     1     2 ar
    12     7     9 1
    13    11    13 ar
    14    11    10 ar
    15    13    14 ar
    16     3     2 ar
    17     9    10 1
    18    10    17 ar
    19    14    15 1
    20    14    16 ar
    21    17    16 ar
    22    17    18 1
    23    18    19 1
    24    21    20 2
    25    19    20 1
    26    20    22 1
    27    25    24 1
    28    24    26 1
    29    24    23 1
    30    22    23 ar
    31    22    27 ar
    32    23    30 ar
    33    27    28 ar
    34    30    29 ar
    35    28    29 ar
    36     1    34 1
    37     2    35 1
    38     3    36 1
    39     4    37 1
    40    13    38 1
    41    16    39 1
    42    18    40 1
    43    18    41 1
    44    19    42 1
    45    27    43 1
    46    28    44 1
    47    29    45 1
    48    30    46 1
@<TRIPOS>SUBSTRUCTURE
     1 FXS         1 TEMP              0 ****  ****    0 ROOT
