@<TRIPOS>MOLECULE
molecule
   61    63     1     0     0
SMALL
bcc


@<TRIPOS>ATOM
      1 C1           0.0000     0.0000     0.0000 ca         1 FXV      -0.129500
      2 C2           1.3980     0.0000     0.0000 cp         1 FXV      -0.036000
      3 C3           2.0580     0.0000     1.2320 ca         1 FXV      -0.129500
      4 C4           1.3120    -0.0040     2.3920 ca         1 FXV      -0.087300
      5 N1          -0.0070    -0.0100     2.3480 na         1 FXV       0.126600
      6 C6          -0.6690    -0.0100     1.2060 ca         1 FXV      -0.087300
      7 C7           4.0230     0.7830    -2.5710 ca         1 FXV      -0.088000
      8 C8           3.5830     0.0150    -3.6520 ca         1 FXV      -0.152600
      9 C9           2.4280    -0.7630    -3.5310 ca         1 FXV      -0.088000
     10 C10          1.7230    -0.7670    -2.3490 ca         1 FXV      -0.119500
     11 C11          2.1590     0.0050    -1.2730 cp         1 FXV       0.002000
     12 C12          3.3110     0.7820    -1.3930 ca         1 FXV      -0.119500
     13 N14          5.4550     0.7700    -5.0360 ns         1 FXV      -0.594900
     14 C15          6.2070     0.7750    -6.2930 c3         1 FXV       0.127700
     15 C16          7.1780    -0.4060    -6.3110 c3         1 FXV      -0.150100
     16 C17          6.9930     2.0820    -6.4120 c3         1 FXV      -0.140700
     17 C18          6.0350     3.2470    -6.3950 c          1 FXV       0.673100
     18 O19          5.2370     3.4430    -5.3330 os         1 FXV      -0.402900
     19 C20          7.7780     2.0880    -7.7250 c3         1 FXV      -0.035100
     20 C23          8.1560     4.4790    -8.3480 ca         1 FXV      -0.012000
     21 C24          8.9590     5.6190    -8.4000 ca         1 FXV      -0.249900
     22 C25         10.2570     5.5740    -7.8910 ca         1 FXV      -0.097000
     23 C26         10.7380     4.4050    -7.3360 ca         1 FXV      -0.091000
     24 C27          9.9340     3.2800    -7.2840 ca         1 FXV       0.018000
     25 C28          8.6460     3.3180    -7.7860 ca         1 FXV      -0.081300
     26 N30          9.2080     7.9540    -9.0460 nz         1 FXV      -0.775600
     27 N31          7.1990     6.9100    -9.4790 nv         1 FXV      -0.363100
     28 O32          5.9870     4.0030    -7.3360 o          1 FXV      -0.644000
     29 C34          4.3160     4.5650    -5.3170 c3         1 FXV       0.143700
     30 O1          -0.7350    -0.0140     3.5640 o          1 FXV      -0.317000
     31 H1          -0.5500    -0.0000    -0.9330 ha         1 FXV       0.163000
     32 H3           3.1410     0.0020     1.2750 ha         1 FXV       0.163000
     33 H4           1.8150    -0.0040     3.3510 h4         1 FXV       0.201500
     34 H6          -1.7520    -0.0120     1.2160 h4         1 FXV       0.201500
     35 H7           4.9560     1.3290    -2.6400 ha         1 FXV       0.144500
     36 H9           2.1090    -1.3900    -4.3550 ha         1 FXV       0.144500
     37 H10          0.8430    -1.3910    -2.2460 ha         1 FXV       0.149500
     38 H12          3.7350     1.5180    -0.7200 ha         1 FXV       0.149500
     39 H14          5.8010     1.2750    -4.2440 hn         1 FXV       0.323500
     40 H15          5.5190     0.6890    -7.1250 h1         1 FXV       0.090700
     41 H161         8.1980    -0.1490    -6.5700 hc         1 FXV       0.073367
     42 H162         7.0360    -1.1210    -5.5100 hc         1 FXV       0.073367
     43 H163         6.5170    -0.5390    -7.1580 hc         1 FXV       0.073367
     44 H17          7.6800     2.1680    -5.5800 hc         1 FXV       0.090700
     45 H201         8.4010     1.2040    -7.7770 hc         1 FXV       0.094700
     46 H202         7.0870     2.0920    -8.5590 hc         1 FXV       0.094700
     47 H23          7.1440     4.3850    -8.7230 ha         1 FXV       0.210000
     48 H25         10.8860     6.4550    -7.9300 ha         1 FXV       0.128000
     49 H26         11.7460     4.3680    -6.9410 ha         1 FXV       0.193000
     50 H27         10.3160     2.3650    -6.8470 ha         1 FXV       0.190000
     51 H301        10.0290     7.7560    -9.5830 hn         1 FXV       0.503467
     52 H302         9.4740     8.2230    -8.1190 hn         1 FXV       0.503467
     53 H311         6.8460     7.7550    -9.8820 hn         1 FXV       0.361200
     54 H312         6.6290     6.0870    -9.4640 hn         1 FXV       0.361200
     55 H341         3.7560     4.5590    -4.3890 h1         1 FXV       0.059033
     56 H342         4.8720     5.4910    -5.3960 h1         1 FXV       0.059033
     57 H343         3.6310     4.4820    -6.1520 h1         1 FXV       0.059033
     58 H303         8.7130     8.7170    -9.4630 hn         1 FXV       0.503467
     59 C13          4.3410     0.0190    -4.9200 c          1 FXV       0.680700
     60 C29          8.4380     6.8700    -8.9950 ce         1 FXV       0.453800
     61 O33          3.9610    -0.6530    -5.8580 o          1 FXV      -0.593100
@<TRIPOS>BOND
     1     1     2 ar
     2     1     6 ar
     3     1    31 1
     4     2     3 ar
     5     2    11 1
     6     3     4 ar
     7     3    32 1
     8     4     5 2
     9     4    33 1
    10     5     6 1
    11     5    30 1
    12     6    34 1
    13     7     8 ar
    14     7    12 ar
    15     7    35 1
    16     8     9 ar
    17     8    59 1
    18     9    10 ar
    19     9    36 1
    20    10    11 ar
    21    10    37 1
    22    11    12 ar
    23    12    38 1
    24    59    13 1
    25    59    61 2
    26    13    14 1
    27    13    39 1
    28    14    15 1
    29    14    16 1
    30    14    40 1
    31    15    41 1
    32    15    42 1
    33    15    43 1
    34    16    17 1
    35    16    19 1
    36    16    44 1
    37    17    18 1
    38    17    28 2
    39    18    29 1
    40    19    25 1
    41    19    45 1
    42    19    46 1
    43    20    21 ar
    44    20    25 ar
    45    20    47 1
    46    21    22 ar
    47    21    60 1
    48    22    23 ar
    49    22    48 1
    50    23    24 ar
    51    23    49 1
    52    24    25 ar
    53    24    50 1
    54    60    26 1
    55    60    27 2
    56    26    51 1
    57    26    52 1
    58    27    53 1
    59    27    54 1
    60    29    55 1
    61    29    56 1
    62    29    57 1
    63    58    26 1
@<TRIPOS>SUBSTRUCTURE
     1 FXV         1 TEMP              0 ****  ****    0 ROOT
