@<TRIPOS>MOLECULE
FXV
   60    58     1     0     0
SMALL
bcc


@<TRIPOS>ATOM
      1 C1          0.6330   -0.9010    0.4800 c2        1 FXV      0.041000
      2 C2          1.2450    0.2790    0.0900 c2        1 FXV     -0.239000
      3 C3          1.5730    1.2620    1.1500 c3        1 FXV     -0.262000
      4 C4          1.2470    0.9560    2.5410 c1        1 FXV      0.141000
      5 N1          0.6020   -0.3090    2.8510 n3        1 FXV      0.287000
      6 C6          0.3200   -1.1870    1.8230 c2        1 FXV     -0.290000
      7 C7          2.4840    2.0640   -2.9620 c2        1 FXV      0.122000
      8 C8          2.1580    1.1360   -3.9820 c2        1 FXV     -0.304000
      9 C9          1.5450   -0.1020   -3.7080 c1        1 FXV     -0.058000
     10 C10         1.2230   -0.4260   -2.3260 c3        1 FXV     -0.218000
     11 C11         1.5580    0.5670   -1.2660 c2        1 FXV      0.160000
     12 C12         2.1780    1.7670   -1.6410 c2        1 FXV     -0.270000
     13 N14         5.1150    0.5110   -5.6260 n2        1 FXV     -0.312000
     14 C15         6.2050    0.9830   -6.1200 c2        1 FXV      0.039000
     15 C16         9.1700   -0.5280   -7.7930 c3        1 FXV     -0.275000
     16 C17         6.4850    2.3980   -6.2340 c2        1 FXV     -0.191000
     17 C18         5.8260    3.4620   -5.7090 c2        1 FXV      0.095000
     18 O19         4.6790    3.5320   -4.9290 os        1 FXV     -0.049000
     19 C20         7.6560    2.9250   -7.0200 c3        1 FXV     -0.137000
     20 C23         7.2950    5.1350   -8.1210 c1        1 FXV     -0.168000
     21 C24         7.1170    5.7020   -9.1590 c1        1 FXV     -0.106000
     22 C25        12.7200    3.7050   -6.5040 c2        1 FXV     -0.194500
     23 C26        11.8190    2.8500   -6.1290 c1        1 FXV     -0.147000
     24 C27        10.9230    1.9890   -5.7520 c2        1 FXV     -0.194500
     25 C28         7.5250    4.4670   -6.8730 c3        1 FXV      0.156000
     26 N30         5.9930    7.3350  -10.5560 n2        1 FXV     -0.269000
     27 N31         7.6230    5.8830  -11.4940 n3        1 FXV     -0.323000
     28 O32         6.3650    4.6980   -5.9820 os        1 FXV     -0.237000
     29 C34         4.3140    4.5460   -4.2290 c1        1 FXV     -0.023000
     30 O1          0.3300   -0.5620    3.9950 o         1 FXV     -0.207000
     31 H1          0.3600   -1.6780   -0.2590 ha        1 FXV      0.165000
     32 H3          1.0650    2.2610    0.9500 hc        1 FXV      0.200000
     33 H4          2.6870    1.4950    1.1600 hc        1 FXV      0.200000
     34 H6         -0.1700   -2.1400    2.1000 h4        1 FXV      0.208000
     35 H7          2.4380    2.5150   -0.8720 ha        1 FXV      0.161000
     36 H9          1.7380   -1.4130   -2.1050 hc        1 FXV      0.190500
     37 H10         0.1100   -0.6490   -2.3050 hc        1 FXV      0.190500
     38 H12         2.9820    3.0300   -3.2140 ha        1 FXV      0.202000
     39 H14         5.0680   -0.4870   -5.6030 hn        1 FXV      0.155000
     40 H15         7.0390    0.3500   -6.5130 h4        1 FXV      0.124000
     41 H161        9.1530   -0.8100   -6.7180 hc        1 FXV      0.069500
     42 H162       10.1990   -0.6640   -8.1930 hc        1 FXV      0.069500
     43 H163        8.4660   -1.1740   -8.3600 hc        1 FXV      0.069500
     44 H17         8.8700    0.5380   -7.9050 hc        1 FXV      0.069500
     45 H201        8.6300    2.5730   -6.5900 hc        1 FXV      0.129500
     46 H202        7.6040    2.6100   -8.0910 hc        1 FXV      0.129500
     47 H23         8.3960    4.9190   -6.3210 h1        1 FXV      0.148000
     48 H25        12.4700    4.6340   -7.0370 ha        1 FXV      0.134000
     49 H26        10.6110    1.1470   -6.3910 ha        1 FXV      0.134000
     50 H27        10.4450    2.0340   -4.7630 ha        1 FXV      0.134000
     51 H301        5.4460    7.5380   -9.7480 hn        1 FXV      0.160000
     52 H302       13.7920    3.5480   -6.3090 ha        1 FXV      0.134000
     53 H311        8.5600    5.6460  -11.2540 hn        1 FXV      0.203000
     54 H312        7.5500    6.4130  -12.3370 hn        1 FXV      0.203000
     55 H341        4.9000    5.4810   -4.1830 ha        1 FXV      0.093000
     56 H342        2.7090    5.4600   -5.6730 ha        1 FXV      0.006500
     57 H343        3.2020    5.8800   -5.8790 ha        1 FXV      0.006500
     58 C13         2.4250    1.3870   -5.3160 c1        1 FXV      0.528000
     59 C29         6.8720    6.3880  -10.4080 c2        1 FXV      0.181000
     60 O33         2.5600    1.5770   -6.4540 o         1 FXV      0.037000
@<TRIPOS>BOND
     1    1    2 1   
     2    1    6 1   
     3    1   31 1   
     4    2    3 1   
     5    2   11 1   
     6    3    4 1   
     7    3   32 1   
     8    3   33 1   
     9    4    5 1   
    10    5    6 1   
    11    5   30 1   
    12    6   34 1   
    13    7    8 1   
    14    7   12 1   
    15    7   38 1   
    16    8    9 1   
    17    8   58 1   
    18    9   10 1   
    19   10   11 1   
    20   10   36 1   
    21   10   37 1   
    22   11   12 1   
    23   12   35 1   
    24   13   14 1   
    25   13   39 1   
    26   14   16 1   
    27   14   40 1   
    28   15   41 1   
    29   15   42 1   
    30   15   43 1   
    31   15   44 1   
    32   16   17 1   
    33   16   19 1   
    34   17   18 1   
    35   17   28 1   
    36   18   29 1   
    37   19   25 1   
    38   19   45 1   
    39   19   46 1   
    40   20   21 1   
    41   20   25 1   
    42   21   59 1   
    43   22   23 1   
    44   22   48 1   
    45   22   52 1   
    46   23   24 1   
    47   24   49 1   
    48   24   50 1   
    49   25   28 1   
    50   25   47 1   
    51   26   51 1   
    52   26   59 1   
    53   27   53 1   
    54   27   54 1   
    55   27   59 1   
    56   29   55 1   
    57   56   57 1   
    58   58   60 1   
@<TRIPOS>SUBSTRUCTURE
     1 FXV         1 TEMP              0 ****  ****    0 ROOT
