@<TRIPOS>MOLECULE
molecule
   30    29     1     0     0
SMALL
bcc


@<TRIPOS>ATOM
      1 O10          0.0000     0.0000     0.0000 o          1 FXY      -0.615100
      2 C9           1.2120     0.0000     0.0000 c          1 FXY       0.655900
      3 N8           1.8850     0.0000     1.1670 ns         1 FXY      -0.591900
      4 C1           1.1530    -0.0000     2.4350 c3         1 FXY       0.105700
      5 C25          0.8980     1.4420     2.8770 c3         1 FXY      -0.108100
      6 C2           1.9800    -0.7210     3.5020 c3         1 FXY      -0.095400
      7 C3           2.2350    -2.1630     3.0590 c3         1 FXY      -0.081400
      8 C4           3.0620    -2.8840     4.1260 c3         1 FXY      -0.083400
      9 C5           3.3180    -4.3260     3.6850 c3         1 FXY      -0.081400
     10 C6           4.1450    -5.0470     4.7500 c3         1 FXY      -0.084400
     11 C7           4.4010    -6.4880     4.3100 c3         1 FXY      -0.092100
     12 H9           1.7530     0.0240    -0.9380 h5         1 FXY       0.021200
     13 HN8          2.8850     0.0390     1.1680 hn         1 FXY       0.311500
     14 H1           0.2070    -0.5120     2.3060 h1         1 FXY       0.085700
     15 H251         1.8440     1.9500     3.0150 hc         1 FXY       0.041367
     16 H252         0.3200     1.9540     2.1180 hc         1 FXY       0.041367
     17 H253         0.3480     1.4420     3.8100 hc         1 FXY       0.041367
     18 H21          1.4390    -0.7210     4.4400 hc         1 FXY       0.047700
     19 H22          2.9270    -0.2100     3.6310 hc         1 FXY       0.047700
     20 H31          1.2890    -2.6730     2.9290 hc         1 FXY       0.045200
     21 H32          2.7780    -2.1620     2.1210 hc         1 FXY       0.045200
     22 H41          4.0080    -2.3730     4.2570 hc         1 FXY       0.040200
     23 H42          2.5200    -2.8850     5.0640 hc         1 FXY       0.040200
     24 H51          3.8610    -4.3250     2.7470 hc         1 FXY       0.042200
     25 H52          2.3720    -4.8370     3.5540 hc         1 FXY       0.042200
     26 H61          3.6020    -5.0480     5.6880 hc         1 FXY       0.040200
     27 H62          5.0910    -4.5360     4.8810 hc         1 FXY       0.040200
     28 H71          3.4550    -7.0000     4.1780 hc         1 FXY       0.033033
     29 H72          4.9450    -6.4880     3.3730 hc         1 FXY       0.033033
     30 H73          4.9850    -6.9990     5.0660 hc         1 FXY       0.033033
@<TRIPOS>BOND
     1     1     2 2
     2     2     3 1
     3     2    12 1
     4     3     4 1
     5     3    13 1
     6     4     5 1
     7     4     6 1
     8     4    14 1
     9     5    15 1
    10     5    16 1
    11     5    17 1
    12     6     7 1
    13     6    18 1
    14     6    19 1
    15     7     8 1
    16     7    20 1
    17     7    21 1
    18     8     9 1
    19     8    22 1
    20     8    23 1
    21     9    10 1
    22     9    24 1
    23     9    25 1
    24    10    11 1
    25    10    26 1
    26    10    27 1
    27    11    28 1
    28    11    29 1
    29    11    30 1
@<TRIPOS>SUBSTRUCTURE
     1 FXY         1 TEMP              0 ****  ****    0 ROOT
