@<TRIPOS>MOLECULE
molecule
   34    34     1     0     0
SMALL
bcc


@<TRIPOS>ATOM
      1 C1           0.0000     0.0000     0.0000 ca         1 FY0      -0.103000
      2 C2           1.3820     0.0000     0.0000 ca         1 FY0      -0.175500
      3 C3           2.0730     0.0000     1.2020 ca         1 FY0       0.226100
      4 C4           1.3760    -0.0010     2.4010 ca         1 FY0      -0.175500
      5 C5          -0.0050    -0.0010     2.3950 ca         1 FY0      -0.103000
      6 C6          -0.6930    -0.0010     1.1960 ca         1 FY0      -0.143300
      7 O1           3.4330    -0.0010     1.2050 os         1 FY0      -0.466500
      8 P1           4.0890     1.4690     1.2060 p5         1 FY0       1.164900
      9 O2           5.6880     1.3440     1.0770 o          1 FY0      -0.908167
     10 O3           3.5600     2.2460     0.0630 o          1 FY0      -0.908167
     11 O4           3.7180     2.2210     2.5820 o          1 FY0      -0.908167
     12 C7          -2.2000     0.0010     1.1930 c3         1 FY0       0.003900
     13 C8          -2.7100    -1.4410     1.1920 c3         1 FY0      -0.159700
     14 C9          -2.3100    -2.1140    -0.0950 c          1 FY0       0.895600
     15 O5          -1.6800    -1.5040    -0.9260 o          1 FY0      -0.845800
     16 O6          -2.6520    -3.3920    -0.3190 o          1 FY0      -0.845800
     17 C10         -4.2350    -1.4420     1.3150 c3         1 FY0      -0.119400
     18 C11         -4.7280    -2.8610     1.4360 c          1 FY0       0.625100
     19 N1          -6.0480    -3.1080     1.5570 ns         1 FY0      -0.629900
     20 C12         -6.5270    -4.4870     1.6750 c3         1 FY0       0.113300
     21 O7          -3.9380    -3.7810     1.4260 o          1 FY0      -0.489100
     22 H1          -0.5410     0.0000    -0.9390 ha         1 FY0       0.113500
     23 H2           1.9240     0.0010    -0.9380 ha         1 FY0       0.129000
     24 H3           1.9150    -0.0010     3.3410 ha         1 FY0       0.129000
     25 H4          -0.5510    -0.0010     3.3320 ha         1 FY0       0.113500
     26 H7          -2.5590     0.5120     0.3080 hc         1 FY0       0.008700
     27 H8          -2.5630     0.5120     2.0770 hc         1 FY0       0.008700
     28 H9          -2.2800    -1.9780     2.0290 hc         1 FY0       0.062700
     29 H11         -4.6690    -0.9840     0.4340 hc         1 FY0       0.026200
     30 H12         -4.5270    -0.8820     2.1950 hc         1 FY0       0.026200
     31 H13         -6.7000    -2.3490     1.5720 hn         1 FY0       0.282500
     32 H14         -6.0840    -4.9500     2.5480 h1         1 FY0       0.018033
     33 H15         -7.6060    -4.4870     1.7740 h1         1 FY0       0.018033
     34 H16         -6.2470    -5.0440     0.7890 h1         1 FY0       0.018033
@<TRIPOS>BOND
     1     1     2 ar
     2     1     6 ar
     3     2     3 ar
     4     3     4 ar
     5     4     5 ar
     6     5     6 ar
     7     3     7 1
     8     7     8 1
     9     8     9 1
    10     8    10 1
    11     8    11 1
    12     6    12 1
    13    12    13 1
    14    13    14 1
    15    14    15 1
    16    14    16 1
    17    13    17 1
    18    17    18 1
    19    18    19 1
    20    19    20 1
    21    18    21 2
    22     1    22 1
    23     2    23 1
    24     4    24 1
    25     5    25 1
    26    12    26 1
    27    12    27 1
    28    13    28 1
    29    17    29 1
    30    17    30 1
    31    19    31 1
    32    20    32 1
    33    20    33 1
    34    20    34 1
@<TRIPOS>SUBSTRUCTURE
     1 FY0         1 TEMP              0 ****  ****    0 ROOT
