@<TRIPOS>MOLECULE
FY1
   39    40     1     0     0
SMALL
bcc


@<TRIPOS>ATOM
      1 N16          0.0000     0.0000     0.0000 no         1 FY1       1.039200
      2 C15          1.4800     0.0000     0.0000 ca         1 FY1      -0.405200
      3 C2           0.9500     4.7040     5.6000 ca         1 FY1       0.013100
      4 C1           0.6530     3.5390     4.9050 ca         1 FY1       0.170100
      5 C10          2.1790     0.0000     1.2080 ca         1 FY1      -0.050600
      6 C9           1.4440     0.0000     2.4910 c          1 FY1       0.572700
      7 C12          4.2540    -0.0010    -0.0010 ca         1 FY1      -0.046000
      8 C14          2.1720    -0.0070    -1.1930 ca         1 FY1      -0.014000
      9 C8          -2.4070     5.5040     3.6210 c3         1 FY1       0.242700
     10 C7           0.8280     1.0570     4.5970 c3         1 FY1       0.117300
     11 C6           1.1470     2.3230     5.3500 ca         1 FY1      -0.153300
     12 C5           1.9360     2.2730     6.4840 ca         1 FY1      -0.047000
     13 C4           2.2310     3.4340     7.1760 ca         1 FY1       0.016100
     14 C3           1.7420     4.6490     6.7300 ca         1 FY1      -0.046000
     15 O17          0.6670    -0.9000     2.7470 o          1 FY1      -0.593100
     16 O25         -2.1680     4.4330     4.5370 os         1 FY1      -0.425600
     17 C21         -1.5130     3.3050     3.9520 c3         1 FY1       0.423200
     18 Br1          0.2770     6.3650     4.9950 br         1 FY1      -0.091100
     19 Br2          3.3090     3.3610     8.7270 br         1 FY1      -0.110100
     20 N8           1.6350     0.9980     3.3770 ns         1 FY1      -0.182900
     21 O19         -0.6100    -0.0490     1.0530 o          1 FY1      -0.438500
     22 O18         -0.6090     0.0560    -1.0540 o          1 FY1      -0.438500
     23 C11          3.5750    -0.0010     1.2000 ca         1 FY1      -0.099000
     24 C13          3.5550    -0.0070    -1.1950 ca         1 FY1      -0.107000
     25 H1           5.3370    -0.0010    -0.0090 ha         1 FY1       0.110000
     26 H2           1.6300    -0.0120    -2.1310 ha         1 FY1       0.135000
     27 H3          -3.3850     5.3830     3.1720 h1         1 FY1      -0.005967
     28 H4          -1.6500     5.4940     2.8470 h1         1 FY1      -0.005967
     29 H5          -2.3680     6.4480     4.1520 h1         1 FY1      -0.005967
     30 H6          -0.2240     1.0490     4.3360 h1         1 FY1       0.036200
     31 H7           1.0520     0.2000     5.2210 h1         1 FY1       0.036200
     32 H8           2.3210     1.3220     6.8330 ha         1 FY1       0.124000
     33 H9           1.9740     5.5580     7.2730 ha         1 FY1       0.131000
     34 H10         -1.6310     2.4440     4.6000 h2         1 FY1       0.022200
     35 H11         -1.9530     3.0930     2.9860 h2         1 FY1       0.022200
     36 H12          2.3260     1.6990     3.1990 hn         1 FY1       0.177500
     37 H13          4.1240     0.0020     2.1340 ha         1 FY1       0.117000
     38 H14          4.0930    -0.0090    -2.1350 ha         1 FY1       0.116000
     39 O20         -0.1220     3.5920     3.7900 os         1 FY1      -0.354900
@<TRIPOS>BOND
     1     1     2 1   
     2     1    21 1   
     3     1    22 1   
     4     2     5 ar  
     5     2     8 ar  
     6     3     4 ar  
     7     3    14 ar  
     8     3    18 1   
     9     4    11 ar  
    10     4    39 1   
    11     5     6 1   
    12     5    23 ar  
    13     6    15 2   
    14     6    20 1   
    15     7    23 ar  
    16     7    24 ar  
    17     7    25 1   
    18     8    24 ar  
    19     8    26 1   
    20     9    16 1   
    21     9    27 1   
    22     9    28 1   
    23     9    29 1   
    24    10    11 1   
    25    10    20 1   
    26    10    30 1   
    27    10    31 1   
    28    11    12 ar  
    29    12    13 ar  
    30    12    32 1   
    31    13    14 ar  
    32    13    19 1   
    33    14    33 1   
    34    16    17 1   
    35    17    34 1   
    36    17    35 1   
    37    17    39 1   
    38    20    36 1   
    39    23    37 1   
    40    24    38 1   
@<TRIPOS>SUBSTRUCTURE
     1 FY1         1 TEMP              0 ****  ****    0 ROOT
