@<TRIPOS>MOLECULE
molecule
   45    47     1     0     0
SMALL
bcc


@<TRIPOS>ATOM
      1 C29          0.0000     0.0000     0.0000 ca         1 FY7      -0.111000
      2 C28          1.3830     0.0000     0.0000 ca         1 FY7      -0.109000
      3 C27          2.0830     0.0000     1.1910 ca         1 FY7      -0.129000
      4 C26          1.3960     0.0010     2.4020 ca         1 FY7       0.060000
      5 C25         -0.0130     0.0020     2.4030 ca         1 FY7      -0.096600
      6 C21         -0.7560     0.0030     3.6790 c          1 FY7       0.643700
      7 O22         -0.1520     0.0040     4.7330 o          1 FY7      -0.488000
      8 C2          -3.0440    -1.1960     5.5020 ca         1 FY7      -0.040900
      9 C1          -2.7250     0.0060     4.8830 ca         1 FY7       0.144100
     10 C3          -3.6770    -1.1910     6.7300 ca         1 FY7      -0.056000
     11 N3           2.7050     0.0010     4.6130 n1         1 FY7      -0.318800
     12 C19          2.1160     0.0000     3.6400 cg         1 FY7       0.226800
     13 C30         -0.7000     0.0020     1.1910 ca         1 FY7      -0.079000
     14 O20         -2.1030     0.0040     3.6730 os         1 FY7      -0.348200
     15 C6          -3.0420     1.2060     5.4990 ca         1 FY7      -0.140300
     16 C5          -3.6740     1.2070     6.7280 ca         1 FY7      -0.055000
     17 C4          -3.9920     0.0090     7.3430 ca         1 FY7      -0.000900
     18 Br1         -4.8580     0.0120     9.0240 br         1 FY7      -0.073100
     19 C7          -2.6960     2.5120     4.8290 c3         1 FY7      -0.077700
     20 N8          -3.6990     2.8160     3.8050 ns         1 FY7      -0.553900
     21 C9          -3.5930     3.9420     3.0720 c          1 FY7       0.599700
     22 O17         -2.6670     4.7060     3.2610 o          1 FY7      -0.474100
     23 C10         -4.6040     4.2480     2.0390 ca         1 FY7      -0.135600
     24 C11         -4.8830     3.3210     1.0330 ca         1 FY7      -0.128000
     25 C12         -5.8280     3.6130     0.0720 ca         1 FY7      -0.077000
     26 C13         -6.4990     4.8220     0.1020 ca         1 FY7      -0.062000
     27 C14         -6.2280     5.7470     1.0960 ca         1 FY7      -0.087000
     28 C15         -5.2890     5.4640     2.0660 ca         1 FY7      -0.151200
     29 N16         -5.0040     6.4520     3.1320 no         1 FY7       0.281200
     30 O18         -4.2660     6.1560     4.0550 o          1 FY7      -0.182000
     31 O19         -5.5090     7.5590     3.0860 o          1 FY7      -0.182000
     32 H1          -0.4940     0.2660    -0.9260 ha         1 FY7       0.139000
     33 H2           2.1900     0.2090    -0.6920 ha         1 FY7       0.152000
     34 H3           3.1040     0.3590     1.1500 ha         1 FY7       0.150000
     35 H4          -3.8820    -2.1820     7.1160 ha         1 FY7       0.165000
     36 H5          -1.7710     0.1540     1.1340 ha         1 FY7       0.148000
     37 H6          -3.8440     2.2710     6.8410 ha         1 FY7       0.186000
     38 H7          -2.2510     2.2150     3.8870 h1         1 FY7       0.171200
     39 H8          -3.3680     3.2000     4.3300 h1         1 FY7       0.171200
     40 H9          -4.5570     2.3680     3.5500 hn         1 FY7       0.300500
     41 H10         -4.3930     2.4550     1.4620 ha         1 FY7       0.156000
     42 H11         -5.9210     2.6810    -0.4730 ha         1 FY7       0.162000
     43 H12         -6.9710     5.1370    -0.8210 ha         1 FY7       0.160000
     44 H13         -6.1370     6.8080     1.2950 ha         1 FY7       0.202000
     45 Br2         -2.6210    -2.8350     4.6610 br         1 FY7      -0.067100
@<TRIPOS>BOND
     1     2     1 ar
     2     2     3 ar
     3     1    13 ar
     4     3     4 ar
     5    13     5 ar
     6     4     5 ar
     7     4    12 1
     8     5     6 1
     9    12    11 3
    10     6     7 2
    11     6    14 1
    12    14     9 1
    13    24    25 ar
    14    24    23 ar
    15    25    26 ar
    16    19    20 1
    17    19    15 1
    18    20    21 1
    19    21    23 1
    20    21    22 2
    21    23    28 ar
    22     9    15 ar
    23     9     8 ar
    24    26    27 ar
    25    15    16 ar
    26    45     8 1
    27     8    10 ar
    28    28    27 ar
    29    28    29 1
    30    16    17 ar
    31    29    31 1
    32    29    30 1
    33    10    17 ar
    34    17    18 1
    35     1    32 1
    36     2    33 1
    37     3    34 1
    38    10    35 1
    39    13    36 1
    40    16    37 1
    41    19    38 1
    42    19    39 1
    43    20    40 1
    44    24    41 1
    45    25    42 1
    46    26    43 1
    47    27    44 1
@<TRIPOS>SUBSTRUCTURE
     1 FY7         1 TEMP              0 ****  ****    0 ROOT
