@<TRIPOS>MOLECULE
FY7
   45    48     1     0     0
SMALL
bcc


@<TRIPOS>ATOM
      1 C29          0.0000     0.0000     0.0000 ca         1 FY7      -0.082000
      2 C28          1.3830     0.0000     0.0000 ca         1 FY7      -0.079000
      3 C27          2.0830     0.0000     1.1910 ca         1 FY7      -0.120000
      4 C26          1.3960     0.0010     2.4020 ca         1 FY7       0.121000
      5 C25         -0.0130     0.0020     2.4030 ca         1 FY7      -0.101000
      6 C21         -0.7560     0.0030     3.6790 c2         1 FY7       0.404000
      7 O22         -0.1520     0.0040     4.7330 o          1 FY7      -0.337000
      8 C2          -3.0440    -1.1960     5.5020 ca         1 FY7      -0.139000
      9 C1          -2.7250     0.0060     4.8830 ca         1 FY7       0.103000
     10 C3          -3.6770    -1.1910     6.7300 ca         1 FY7      -0.041000
     11 N3           2.7050     0.0010     4.6130 n1         1 FY7      -0.008000
     12 C19          2.1160     0.0000     3.6400 c1         1 FY7      -0.118000
     13 C30         -0.7000     0.0020     1.1910 ca         1 FY7      -0.052000
     14 O20         -2.1030     0.0040     3.6730 os         1 FY7      -0.193000
     15 C6          -3.0420     1.2060     5.4990 ca         1 FY7      -0.138000
     16 C5          -3.6740     1.2070     6.7280 ca         1 FY7      -0.037000
     17 C4          -3.9920     0.0090     7.3430 ca         1 FY7      -0.084000
     18 Br1         -4.8580     0.0120     9.0240 br         1 FY7       0.031000
     19 C7          -2.6960     2.5120     4.8290 c3         1 FY7      -0.243000
     20 N8          -3.6990     2.8160     3.8050 ny         1 FY7       0.036000
     21 C9          -3.5930     3.9420     3.0720 c2         1 FY7       0.210000
     22 O17         -2.6670     4.7060     3.2610 o          1 FY7      -0.261000
     23 C10         -4.6040     4.2480     2.0390 ca         1 FY7      -0.092000
     24 C11         -4.8830     3.3210     1.0330 ca         1 FY7      -0.116000
     25 C12         -5.8280     3.6130     0.0720 ca         1 FY7      -0.027000
     26 C13         -6.4990     4.8220     0.1020 ca         1 FY7      -0.032000
     27 C14         -6.2280     5.7470     1.0960 ca         1 FY7      -0.037000
     28 C15         -5.2890     5.4640     2.0660 ca         1 FY7      -0.396000
     29 N16         -5.0040     6.4520     3.1320 no         1 FY7       1.287000
     30 O18         -4.2660     6.1560     4.0550 o          1 FY7      -0.576500
     31 O19         -5.5090     7.5590     3.0860 o          1 FY7      -0.576500
     32 H1          -0.4940     0.2660    -0.9260 ha         1 FY7       0.107000
     33 H2           2.1900     0.2090    -0.6920 ha         1 FY7       0.121000
     34 H3           3.1040     0.3590     1.1500 ha         1 FY7       0.121000
     35 H4          -3.8820    -2.1820     7.1160 ha         1 FY7       0.134000
     36 H5          -1.7710     0.1540     1.1340 ha         1 FY7       0.114000
     37 H6          -3.8440     2.2710     6.8410 ha         1 FY7       0.155000
     38 H7          -2.2510     2.2150     3.8870 hx         1 FY7       0.007000
     39 H8          -3.3680     3.2000     4.3300 DU         1 FY7       0.281000
     40 H9          -4.5570     2.3680     3.5500 hn         1 FY7       0.076000
     41 H10         -4.3930     2.4550     1.4620 ha         1 FY7       0.124000
     42 H11         -5.9210     2.6810    -0.4730 ha         1 FY7       0.123000
     43 H12         -6.9710     5.1370    -0.8210 ha         1 FY7       0.119000
     44 H13         -6.1370     6.8080     1.2950 ha         1 FY7       0.168000
     45 Br2         -2.6210    -2.8350     4.6610 br         1 FY7       0.045000
@<TRIPOS>BOND
     1     1     2 1   
     2     1    13 1   
     3     1    32 1   
     4     2     3 1   
     5     2    33 1   
     6     3     4 1   
     7     3    34 1   
     8     4     5 1   
     9     4    12 1   
    10     5     6 1   
    11     5    13 1   
    12     6     7 1   
    13     6    14 1   
    14     8     9 1   
    15     8    10 1   
    16     8    45 1   
    17     9    14 1   
    18     9    15 1   
    19    10    17 1   
    20    10    35 1   
    21    11    12 1   
    22    13    36 1   
    23    15    16 1   
    24    15    19 1   
    25    16    17 1   
    26    16    37 1   
    27    17    18 1   
    28    19    20 1   
    29    19    38 1   
    30    19    39 1   
    31    20    21 1   
    32    20    39 1   
    33    20    40 1   
    34    21    22 1   
    35    21    23 1   
    36    23    24 1   
    37    23    28 1   
    38    24    25 1   
    39    24    41 1   
    40    25    26 1   
    41    25    42 1   
    42    26    27 1   
    43    26    43 1   
    44    27    28 1   
    45    27    44 1   
    46    28    29 1   
    47    29    30 1   
    48    29    31 1   
@<TRIPOS>SUBSTRUCTURE
     1 FY7         1 TEMP              0 ****  ****    0 ROOT
