@<TRIPOS>MOLECULE
molecule
   32    33     1     0     0
SMALL
bcc


@<TRIPOS>ATOM
      1 Cl           0.0000     0.0000     0.0000 cl         1 FY8      -0.102400
      2 C1           4.8790    -0.6620     2.1110 c          1 FY8       0.664100
      3 O1           3.8200    -1.1900     2.3740 o          1 FY8      -0.591100
      4 C2           3.9970     0.0000     0.0000 ca         1 FY8       0.045600
      5 N2           7.1010    -0.2140     5.7080 n7         1 FY8      -0.817200
      6 O2           5.5930     0.0090    -1.7740 oh         1 FY8      -0.508100
      7 C3           2.6750     0.0000     0.4150 ca         1 FY8      -0.094000
      8 C4           4.2960     0.0040    -1.3610 ca         1 FY8       0.092100
      9 C5           6.0280    -0.7500     3.0820 c3         1 FY8      -0.145700
     10 C6           3.2720     0.0040    -2.2920 ca         1 FY8      -0.185000
     11 C7           1.6560     0.0000    -0.5220 ca         1 FY8       0.016400
     12 C8           1.9550    -0.0010    -1.8720 ca         1 FY8      -0.107000
     13 C9           6.7460    -1.5860     5.3230 c3         1 FY8       0.157300
     14 C10          7.5660     0.5600     4.5500 c3         1 FY8       0.157300
     15 C11          5.5960    -1.5510     4.3130 c3         1 FY8      -0.065900
     16 C12          6.4400     0.6590     3.5170 c3         1 FY8      -0.065900
     17 HN1          5.8910     0.4720     0.7460 hn         1 FY8       0.333500
     18 HO2          5.6610     0.4720    -2.5920 ho         1 FY8       0.423000
     19 H3           2.4390     0.0610     1.4700 ha         1 FY8       0.182000
     20 H5           6.8700    -1.2420     2.6100 hc         1 FY8       0.067700
     21 H6           3.5020     0.0050    -3.3510 ha         1 FY8       0.140000
     22 H8           1.1550    -0.0010    -2.6020 ha         1 FY8       0.145000
     23 H9           6.4360    -2.1370     6.2020 h1         1 FY8       0.033200
     24 H9A          7.6050    -2.0670     4.8730 h1         1 FY8       0.033200
     25 H10          8.4200     0.0640     4.1040 h1         1 FY8       0.033200
     26 H10A         7.8470     1.5550     4.8710 h1         1 FY8       0.033200
     27 H11          4.7330    -1.0780     4.7660 hc         1 FY8       0.059700
     28 H11A         5.3460    -2.5630     4.0160 hc         1 FY8       0.059700
     29 H12          5.5880     1.1630     3.9590 hc         1 FY8       0.059700
     30 H12A         6.7880     1.2150     2.6550 hc         1 FY8       0.059700
     31 N1           5.0310     0.0010     0.9460 ns         1 FY8      -0.469100
     32 HN2          7.8210    -0.2390     6.4030 hn         1 FY8       0.354800
@<TRIPOS>BOND
     1     1    11 1
     2     2    31 1
     3     2     3 2
     4     2     9 1
     5    31     4 1
     6     4     7 ar
     7     4     8 ar
     8     5    13 1
     9     5    14 1
    10     6     8 1
    11     7    11 ar
    12     8    10 ar
    13     9    15 1
    14     9    16 1
    15    10    12 ar
    16    11    12 ar
    17    13    15 1
    18    14    16 1
    19    31    17 1
    20     5    32 1
    21     6    18 1
    22     7    19 1
    23     9    20 1
    24    10    21 1
    25    12    22 1
    26    13    23 1
    27    13    24 1
    28    14    25 1
    29    14    26 1
    30    15    27 1
    31    15    28 1
    32    16    29 1
    33    16    30 1
@<TRIPOS>SUBSTRUCTURE
     1 FY8         1 TEMP              0 ****  ****    0 ROOT
