@<TRIPOS>MOLECULE
FY8
   32    33     1     0     0
SMALL
bcc


@<TRIPOS>ATOM
      1 Cl           0.0000     0.0000     0.0000 cl         1 FY8      -0.022400
      2 C1           4.8790    -0.6620     2.1110 c          1 FY8       0.566100
      3 O1           3.8200    -1.1900     2.3740 o          1 FY8      -0.631100
      4 C2           3.9970     0.0000     0.0000 ca         1 FY8      -0.108400
      5 N2           7.1010    -0.2140     5.7080 n7         1 FY8      -0.577200
      6 O2           5.5930     0.0090    -1.7740 oh         1 FY8      -0.488100
      7 C3           2.6750     0.0000     0.4150 ca         1 FY8      -0.070000
      8 C4           4.2960     0.0040    -1.3610 ca         1 FY8       0.112100
      9 C5           6.0280    -0.7500     3.0820 c3         1 FY8      -0.125700
     10 C6           3.2720     0.0040    -2.2920 ca         1 FY8      -0.166000
     11 C7           1.6560     0.0000    -0.5220 ca         1 FY8      -0.048600
     12 C8           1.9550    -0.0010    -1.8720 ca         1 FY8      -0.076000
     13 C9           6.7460    -1.5860     5.3230 c3         1 FY8       0.147300
     14 C10          7.5660     0.5600     4.5500 c3         1 FY8       0.147300
     15 C11          5.5960    -1.5510     4.3130 c3         1 FY8      -0.014900
     16 C12          6.4400     0.6590     3.5170 c3         1 FY8      -0.014900
     17 HN1          5.8910     0.4720     0.7460 hn         1 FY8       0.176500
     18 HO2          5.6610     0.4720    -2.5920 ho         1 FY8       0.407000
     19 H3           2.4390     0.0610     1.4700 ha         1 FY8       0.156000
     20 H5           6.8700    -1.2420     2.6100 hc         1 FY8       0.039700
     21 H6           3.5020     0.0050    -3.3510 ha         1 FY8       0.112000
     22 H8           1.1550    -0.0010    -2.6020 ha         1 FY8       0.114000
     23 H9           6.4360    -2.1370     6.2020 h1         1 FY8       0.005700
     24 H9A          7.6050    -2.0670     4.8730 h1         1 FY8       0.005700
     25 H10          8.4200     0.0640     4.1040 h1         1 FY8       0.005700
     26 H10A         7.8470     1.5550     4.8710 h1         1 FY8       0.005700
     27 H11          4.7330    -1.0780     4.7660 hc         1 FY8       0.029200
     28 H11A         5.3460    -2.5630     4.0160 hc         1 FY8       0.029200
     29 H12          5.5880     1.1630     3.9590 hc         1 FY8       0.029200
     30 H12A         6.7880     1.2150     2.6550 hc         1 FY8       0.029200
     31 N1           5.0310     0.0010     0.9460 ns         1 FY8      -0.025100
     32 HN2          7.8210    -0.2390     6.4030 hn         1 FY8       0.251800
@<TRIPOS>BOND
     1     1    11 1   
     2     2     3 2   
     3     2     9 1   
     4     2    31 1   
     5     4     7 ar  
     6     4     8 ar  
     7     4    31 1   
     8     5    13 1   
     9     5    14 1   
    10     5    32 1   
    11     6     8 1   
    12     6    18 1   
    13     7    11 ar  
    14     7    19 1   
    15     8    10 ar  
    16     9    15 1   
    17     9    16 1   
    18     9    20 1   
    19    10    12 ar  
    20    10    21 1   
    21    11    12 ar  
    22    12    22 1   
    23    13    15 1   
    24    13    23 1   
    25    13    24 1   
    26    14    16 1   
    27    14    25 1   
    28    14    26 1   
    29    15    27 1   
    30    15    28 1   
    31    16    29 1   
    32    16    30 1   
    33    17    31 1   
@<TRIPOS>SUBSTRUCTURE
     1 FY8         1 TEMP              0 ****  ****    0 ROOT
