@<TRIPOS>MOLECULE
FYA
   58    61     1     0     0
SMALL
bcc


@<TRIPOS>ATOM
      1 C            0.0000     0.0000     0.0000 c3         1 FYA       0.234400
      2 CA           1.5290     0.0000     0.0000 c3         1 FYA      -0.091500
      3 N            2.0190     0.0000     1.3840 nz         1 FYA       0.053400
      4 CB           2.0400    -1.2490    -0.7210 c3         1 FYA       0.030900
      5 CG           3.5470    -1.2480    -0.7200 ca         1 FYA      -0.155300
      6 CD1          4.2370    -1.8470     0.3150 ca         1 FYA      -0.104500
      7 CD2          4.2380    -0.6540    -1.7600 ca         1 FYA      -0.104500
      8 CE1          5.6200    -1.8470     0.3160 ca         1 FYA      -0.083000
      9 CE2          5.6200    -0.6490    -1.7580 ca         1 FYA      -0.083000
     10 CZ           6.3110    -1.2480    -0.7210 ca         1 FYA      -0.081000
     11 P           -2.0850     1.1010     0.6360 p5         1 FYA       0.911800
     12 O1P         -2.5850    -0.2350     1.3820 o          1 FYA      -0.662500
     13 O2P         -2.5450     1.0810    -0.7720 o          1 FYA      -0.662500
     14 O3P         -0.4770     1.1660     0.6730 os         1 FYA      -0.489200
     15 O5'         -2.6930     2.3920     1.3810 os         1 FYA      -0.451200
     16 C5'         -4.1150     2.2750     1.3150 c3         1 FYA       0.246400
     17 C4'         -4.7580     3.4770     2.0080 c3         1 FYA       0.146100
     18 O4'         -4.3810     4.6900     1.3340 os         1 FYA      -0.383600
     19 C3'         -6.2930     3.3660     1.9360 c3         1 FYA       0.130100
     20 O3'         -6.8620     3.3210     3.2450 oh         1 FYA      -0.557800
     21 C2'         -6.7290     4.6600     1.1990 c3         1 FYA       0.126100
     22 O2'         -7.9060     5.2120     1.7930 oh         1 FYA      -0.545800
     23 C1'         -5.5090     5.5880     1.4220 c3         1 FYA       0.141800
     24 N9          -5.4370     6.6110     0.3770 na         1 FYA       0.217000
     25 C8          -4.8470     6.4750    -0.8450 cc         1 FYA       0.261700
     26 N7          -4.9680     7.5800    -1.5220 nd         1 FYA      -0.510100
     27 C5          -5.6410     8.4910    -0.7810 ca         1 FYA      -0.232200
     28 C6          -6.0550     9.8180    -0.9850 ca         1 FYA       0.586200
     29 N6          -5.7810    10.4710    -2.1730 nv         1 FYA      -0.509500
     30 N1          -6.7180    10.4320    -0.0100 nb         1 FYA      -0.738000
     31 C2          -6.9850     9.8170     1.1280 ca         1 FYA       0.672900
     32 N3          -6.6170     8.5750     1.3620 nb         1 FYA      -0.657000
     33 C4          -5.9550     7.8790     0.4440 ca         1 FYA       0.264800
     34 H1          -0.3610    -0.8850     0.5110 h1         1 FYA       0.047700
     35 H2A         -0.3610    -0.0000    -1.0210 h1         1 FYA       0.047700
     36 HA           1.8900     0.8850    -0.5110 hx         1 FYA       0.088700
     37 HN1          2.3140    -0.9230     1.6340 hn         1 FYA       0.225800
     38 HN2          1.2840     0.2930     1.9980 hn         1 FYA       0.225800
     39 HB1          1.6790    -2.1340    -0.2100 hc         1 FYA       0.053200
     40 HB2          1.6790    -1.2490    -1.7420 hc         1 FYA       0.053200
     41 HD1          3.6960    -2.3160     1.1280 ha         1 FYA       0.108000
     42 HD2          3.6960    -0.1850    -2.5730 ha         1 FYA       0.108000
     43 HE1          6.1620    -2.3160     1.1280 ha         1 FYA       0.113500
     44 HE2          6.1620    -0.1820    -2.5710 ha         1 FYA       0.113500
     45 HZ           7.3950    -1.2460    -0.7200 ha         1 FYA       0.114000
     46 H5'1        -4.4270     2.2470     0.2780 h1         1 FYA       0.020200
     47 H5'2        -4.4260     1.3640     1.8100 h1         1 FYA       0.020200
     48 H4'         -4.4440     3.5220     3.0440 h1         1 FYA       0.039700
     49 H3'         -6.5800     2.4920     1.3620 h1         1 FYA       0.019700
     50 HO'3        -7.3300     2.5100     3.3570 ho         1 FYA       0.389000
     51 H2'         -6.8760     4.4680     0.1430 h1         1 FYA       0.022700
     52 HO'2        -8.6580     4.9850     1.2720 ho         1 FYA       0.386000
     53 H1'         -5.5540     6.0420     2.4050 h2         1 FYA       0.069700
     54 H8          -4.3530     5.5780    -1.2000 h5         1 FYA       0.048800
     55 H61         -4.9550    10.2420    -2.6900 hn         1 FYA       0.273300
     56 H62         -6.3690    11.2210    -2.4790 hn         1 FYA       0.273300
     57 H2          -7.5280    10.3530     1.8960 h5         1 FYA      -0.006900
     58 HN3          2.7910     0.6320     1.4650 hn         1 FYA       0.225800
@<TRIPOS>BOND
     1     1     2 1   
     2     1    14 1   
     3     1    34 1   
     4     1    35 1   
     5     2     3 1   
     6     2     4 1   
     7     2    36 1   
     8     3    37 1   
     9     3    38 1   
    10     3    58 1   
    11     4     5 1   
    12     4    39 1   
    13     4    40 1   
    14     5     6 ar  
    15     5     7 ar  
    16     6     8 ar  
    17     6    41 1   
    18     7     9 ar  
    19     7    42 1   
    20     8    10 ar  
    21     8    43 1   
    22     9    10 ar  
    23     9    44 1   
    24    10    45 1   
    25    11    12 1   
    26    11    13 1   
    27    11    14 1   
    28    11    15 1   
    29    15    16 1   
    30    16    17 1   
    31    16    46 1   
    32    16    47 1   
    33    17    18 1   
    34    17    19 1   
    35    17    48 1   
    36    18    23 1   
    37    19    20 1   
    38    19    21 1   
    39    19    49 1   
    40    20    50 1   
    41    21    22 1   
    42    21    23 1   
    43    21    51 1   
    44    22    52 1   
    45    23    24 1   
    46    23    53 1   
    47    24    25 1   
    48    24    33 1   
    49    25    26 2   
    50    25    54 1   
    51    26    27 1   
    52    27    28 ar  
    53    27    33 ar  
    54    28    29 1   
    55    28    30 ar  
    56    29    55 1   
    57    29    56 1   
    58    30    31 ar  
    59    31    32 ar  
    60    31    57 1   
    61    32    33 ar  
@<TRIPOS>SUBSTRUCTURE
     1 FYA         1 TEMP              0 ****  ****    0 ROOT
