@<TRIPOS>MOLECULE
molecule
   58    61     1     0     0
SMALL
bcc


@<TRIPOS>ATOM
      1 C            0.0000     0.0000     0.0000 c3         1 FYA       0.131400
      2 CA           1.5290     0.0000     0.0000 c3         1 FYA       0.106500
      3 N            2.0190     0.0000     1.3840 nz         1 FYA      -0.804600
      4 CB           2.0400    -1.2490    -0.7210 c3         1 FYA      -0.058100
      5 CG           3.5470    -1.2480    -0.7200 ca         1 FYA      -0.135300
      6 CD1          4.2370    -1.8470     0.3150 ca         1 FYA      -0.134000
      7 CD2          4.2380    -0.6540    -1.7600 ca         1 FYA      -0.134000
      8 CE1          5.6200    -1.8470     0.3160 ca         1 FYA      -0.112500
      9 CE2          5.6200    -0.6490    -1.7580 ca         1 FYA      -0.112500
     10 CZ           6.3110    -1.2480    -0.7210 ca         1 FYA      -0.112000
     11 P           -2.0850     1.1010     0.6360 p5         1 FYA       1.262800
     12 O1P         -2.5850    -0.2350     1.3820 o          1 FYA      -0.797500
     13 O2P         -2.5450     1.0810    -0.7720 o          1 FYA      -0.797500
     14 O3P         -0.4770     1.1660     0.6730 os         1 FYA      -0.557200
     15 O5'         -2.6930     2.3920     1.3810 os         1 FYA      -0.531200
     16 C5'         -4.1150     2.2750     1.3150 c3         1 FYA       0.156400
     17 C4'         -4.7580     3.4770     2.0080 c3         1 FYA       0.124100
     18 O4'         -4.3810     4.6900     1.3340 os         1 FYA      -0.398600
     19 C3'         -6.2930     3.3660     1.9360 c3         1 FYA       0.088100
     20 O3'         -6.8620     3.3210     3.2450 oh         1 FYA      -0.575800
     21 C2'         -6.7290     4.6600     1.1990 c3         1 FYA       0.091100
     22 O2'         -7.9060     5.2120     1.7930 oh         1 FYA      -0.563800
     23 C1'         -5.5090     5.5880     1.4220 c3         1 FYA       0.254800
     24 N9          -5.4370     6.6110     0.3770 na         1 FYA      -0.247000
     25 C8          -4.8470     6.4750    -0.8450 cc         1 FYA       0.437700
     26 N7          -4.9680     7.5800    -1.5220 nd         1 FYA      -0.596100
     27 C5          -5.6410     8.4910    -0.7810 ca         1 FYA      -0.201200
     28 C6          -6.0550     9.8180    -0.9850 ca         1 FYA       0.779200
     29 N6          -5.7810    10.4710    -2.1730 nv         1 FYA      -1.000500
     30 N1          -6.7180    10.4320    -0.0100 nb         1 FYA      -0.830000
     31 C2          -6.9850     9.8170     1.1280 ca         1 FYA       0.727900
     32 N3          -6.6170     8.5750     1.3620 nb         1 FYA      -0.774000
     33 C4          -5.9550     7.8790     0.4440 ca         1 FYA       0.473800
     34 H1          -0.3610    -0.8850     0.5110 h1         1 FYA       0.097700
     35 H2A         -0.3610    -0.0000    -1.0210 h1         1 FYA       0.097700
     36 HA           1.8900     0.8850    -0.5110 hx         1 FYA       0.115700
     37 HN1          2.3140    -0.9230     1.6340 hn         1 FYA       0.453133
     38 HN2          1.2840     0.2930     1.9980 hn         1 FYA       0.453133
     39 HB1          1.6790    -2.1340    -0.2100 hc         1 FYA       0.091200
     40 HB2          1.6790    -1.2490    -1.7420 hc         1 FYA       0.091200
     41 HD1          3.6960    -2.3160     1.1280 ha         1 FYA       0.131500
     42 HD2          3.6960    -0.1850    -2.5730 ha         1 FYA       0.131500
     43 HE1          6.1620    -2.3160     1.1280 ha         1 FYA       0.144500
     44 HE2          6.1620    -0.1820    -2.5710 ha         1 FYA       0.144500
     45 HZ           7.3950    -1.2460    -0.7200 ha         1 FYA       0.145000
     46 H5'1        -4.4270     2.2470     0.2780 h1         1 FYA       0.067200
     47 H5'2        -4.4260     1.3640     1.8100 h1         1 FYA       0.067200
     48 H4'         -4.4440     3.5220     3.0440 h1         1 FYA       0.080700
     49 H3'         -6.5800     2.4920     1.3620 h1         1 FYA       0.055700
     50 HO'3        -7.3300     2.5100     3.3570 ho         1 FYA       0.405000
     51 H2'         -6.8760     4.4680     0.1430 h1         1 FYA       0.059700
     52 HO'2        -8.6580     4.9850     1.2720 ho         1 FYA       0.403000
     53 H1'         -5.5540     6.0420     2.4050 h2         1 FYA       0.111700
     54 H8          -4.3530     5.5780    -1.2000 h5         1 FYA       0.096800
     55 H61         -4.9550    10.2420    -2.6900 hn         1 FYA       0.445300
     56 H62         -6.3690    11.2210    -2.4790 hn         1 FYA       0.445300
     57 H2          -7.5280    10.3530     1.8960 h5         1 FYA       0.059100
     58 HN3          2.7910     0.6320     1.4650 hn         1 FYA       0.453133
@<TRIPOS>BOND
     1     1     2 1
     2     1    14 1
     3     1    34 1
     4     1    35 1
     5     2     3 1
     6     2     4 1
     7     2    36 1
     8     3    37 1
     9     3    38 1
    10     4     5 1
    11     4    39 1
    12     4    40 1
    13     5     6 ar
    14     5     7 ar
    15     6     8 ar
    16     6    41 1
    17     7     9 ar
    18     7    42 1
    19     8    10 ar
    20     8    43 1
    21     9    10 ar
    22     9    44 1
    23    10    45 1
    24    11    12 1
    25    11    13 1
    26    11    14 1
    27    11    15 1
    28    15    16 1
    29    16    17 1
    30    16    46 1
    31    16    47 1
    32    17    18 1
    33    17    19 1
    34    17    48 1
    35    18    23 1
    36    19    20 1
    37    19    21 1
    38    19    49 1
    39    20    50 1
    40    21    22 1
    41    21    23 1
    42    21    51 1
    43    22    52 1
    44    23    24 1
    45    23    53 1
    46    24    25 1
    47    24    33 1
    48    25    26 2
    49    25    54 1
    50    26    27 1
    51    27    28 ar
    52    27    33 ar
    53    28    29 1
    54    28    30 ar
    55    29    55 1
    56    29    56 1
    57    30    31 ar
    58    31    32 ar
    59    31    57 1
    60    32    33 ar
    61    58     3 1
@<TRIPOS>SUBSTRUCTURE
     1 FYA         1 TEMP              0 ****  ****    0 ROOT
