@<TRIPOS>MOLECULE
molecule
   40    42     1     0     0
SMALL
bcc


@<TRIPOS>ATOM
      1 O1           0.0000     0.0000     0.0000 o          1 FYC      -0.656500
      2 C1           1.2170     0.0000     0.0000 c          1 FYC       0.800500
      3 N1           1.9910     0.0000     1.1010 ns         1 FYC      -0.448100
      4 C2           3.3250    -0.0000     0.7000 ca         1 FYC       0.000600
      5 C3           4.5270    -0.0000     1.3910 ca         1 FYC      -0.128000
      6 C4           5.7210     0.0000     0.6960 ca         1 FYC      -0.109000
      7 C5           5.7210     0.0020    -0.6880 ca         1 FYC      -0.115300
      8 C6           7.0280     0.0020    -1.4390 c3         1 FYC       0.165300
      9 N2           7.4530    -1.3790    -1.6830 ns         1 FYC      -0.583900
     10 C7           8.6020    -1.6250    -2.3420 c          1 FYC       0.671300
     11 C8           9.0260    -3.0030    -2.5860 ce         1 FYC      -0.199400
     12 C9           8.1760    -4.1490    -2.0990 c3         1 FYC      -0.063900
     13 C10         10.1770    -3.2490    -3.2450 cf         1 FYC      -0.027200
     14 C11         10.5270    -4.6270    -3.6250 ca         1 FYC      -0.113800
     15 C12          9.5270    -5.5250    -4.0140 ca         1 FYC      -0.093000
     16 C13          9.8630    -6.8130    -4.3690 ca         1 FYC      -0.149000
     17 C14         11.1860    -7.2220    -4.3410 ca         1 FYC      -0.094000
     18 C15         12.1820    -6.3420    -3.9570 ca         1 FYC      -0.170000
     19 C16         11.8630    -5.0440    -3.6050 ca         1 FYC       0.153900
     20 F1          12.8370    -4.1840    -3.2350 f          1 FYC      -0.131900
     21 O2           9.2880    -0.6990    -2.7340 o          1 FYC      -0.613100
     22 C17          4.5290     0.0020    -1.3870 ca         1 FYC      -0.110000
     23 C18          3.3250     0.0010    -0.6970 ca         1 FYC      -0.009400
     24 N3           1.9930    -0.0050    -1.1000 ns         1 FYC      -0.447100
     25 H1           1.6640     0.0000     2.0470 hn         1 FYC       0.363500
     26 H3           1.6680    -0.0110    -2.0470 hn         1 FYC       0.363500
     27 HA           4.5300    -0.0010     2.4740 ha         1 FYC       0.139000
     28 H4           6.6600     0.0050     1.2360 ha         1 FYC       0.144000
     29 H61C         7.7810     0.5130    -0.8510 h1         1 FYC       0.061200
     30 H62C         6.9010     0.5130    -2.3850 h1         1 FYC       0.061200
     31 H17          4.5340     0.0030    -2.4700 ha         1 FYC       0.142000
     32 H2           6.8870    -2.1400    -1.3630 hn         1 FYC       0.319500
     33 H91C         7.3730    -4.3280    -2.8040 hc         1 FYC       0.046700
     34 H92C         8.7860    -5.0400    -2.0130 hc         1 FYC       0.046700
     35 H93C         7.7580    -3.9030    -1.1310 hc         1 FYC       0.046700
     36 H10         10.7860    -2.4230    -3.5930 ha         1 FYC       0.169000
     37 H12          8.4910    -5.2080    -4.0370 ha         1 FYC       0.147000
     38 H13          9.0900    -7.5090    -4.6710 ha         1 FYC       0.136000
     39 H14         11.4430    -8.2370    -4.6190 ha         1 FYC       0.138000
     40 H15         13.2150    -6.6690    -3.9400 ha         1 FYC       0.148000
@<TRIPOS>BOND
     1     1     2 2
     2     2     3 1
     3     2    24 1
     4     3     4 1
     5     4     5 ar
     6     4    23 ar
     7     5     6 ar
     8     6     7 ar
     9     7     8 1
    10     7    22 ar
    11     8     9 1
    12     9    10 1
    13    10    11 1
    14    10    21 2
    15    11    12 1
    16    11    13 2
    17    13    14 1
    18    14    15 ar
    19    14    19 ar
    20    15    16 ar
    21    16    17 ar
    22    17    18 ar
    23    18    19 ar
    24    19    20 1
    25    22    23 ar
    26    23    24 1
    27     3    25 1
    28    24    26 1
    29     5    27 1
    30     6    28 1
    31     8    29 1
    32     8    30 1
    33    22    31 1
    34     9    32 1
    35    12    33 1
    36    12    34 1
    37    12    35 1
    38    13    36 1
    39    15    37 1
    40    16    38 1
    41    17    39 1
    42    18    40 1
@<TRIPOS>SUBSTRUCTURE
     1 FYC         1 TEMP              0 ****  ****    0 ROOT
