@<TRIPOS>MOLECULE
FYC
   40    43     1     0     0
SMALL
bcc


@<TRIPOS>ATOM
      1 O1           0.0000     0.0000     0.0000 o          1 FYC      -0.437000
      2 C1           1.2170     0.0000     0.0000 c2         1 FYC       0.146000
      3 N1           1.9910     0.0000     1.1010 ns         1 FYC       0.170000
      4 C2           3.3250    -0.0000     0.7000 ca         1 FYC      -0.152000
      5 C3           4.5270    -0.0000     1.3910 ca         1 FYC      -0.084000
      6 C4           5.7210     0.0000     0.6960 ca         1 FYC      -0.082000
      7 C5           5.7210     0.0020    -0.6880 ca         1 FYC      -0.116000
      8 C6           7.0280     0.0020    -1.4390 c3         1 FYC      -0.005000
      9 N2           7.4530    -1.3790    -1.6830 ns         1 FYC      -0.026000
     10 C7           8.6020    -1.6250    -2.3420 c2         1 FYC       0.244000
     11 C8           9.0260    -3.0030    -2.5860 c2         1 FYC      -0.059000
     12 C9           8.1760    -4.1490    -2.0990 c3         1 FYC      -0.141000
     13 C10         10.1770    -3.2490    -3.2450 c2         1 FYC      -0.243000
     14 C11         10.5270    -4.6270    -3.6250 c3         1 FYC      -0.174000
     15 C12          9.5270    -5.5250    -4.0140 c2         1 FYC      -0.072000
     16 C13          9.8630    -6.8130    -4.3690 c2         1 FYC      -0.126000
     17 C14         11.1860    -7.2220    -4.3410 c2         1 FYC      -0.044000
     18 C15         12.1820    -6.3420    -3.9570 c2         1 FYC      -0.148000
     19 C16         11.8630    -5.0440    -3.6050 c2         1 FYC       0.119000
     20 F1          12.8370    -4.1840    -3.2350 f          1 FYC      -0.076000
     21 O2           9.2880    -0.6990    -2.7340 o          1 FYC      -0.353000
     22 C17          4.5290     0.0020    -1.3870 ca         1 FYC      -0.067000
     23 C18          3.3250     0.0010    -0.6970 ca         1 FYC      -0.160000
     24 N3           1.9930    -0.0050    -1.1000 ns         1 FYC       0.171000
     25 H1           1.6640     0.0000     2.0470 hn         1 FYC       0.106000
     26 H3           1.6680    -0.0110    -2.0470 hn         1 FYC       0.106000
     27 HA           4.5300    -0.0010     2.4740 ha         1 FYC       0.109000
     28 H4           6.6600     0.0070     1.2360 ha         1 FYC       0.114000
     29 H61C         6.9010     0.5130    -2.3850 h1         1 FYC       0.070000
     30 H62C         7.7810     0.5130    -0.8510 h1         1 FYC       0.070000
     31 H17          4.5340     0.0030    -2.4700 ha         1 FYC       0.113000
     32 H2           6.8820    -2.1400    -1.3710 hn         1 FYC       0.093000
     33 H91C         7.7580    -3.9030    -1.1310 hc         1 FYC       0.063667
     34 H92C         7.3730    -4.3280    -2.8040 hc         1 FYC       0.063667
     35 H93C         8.7860    -5.0400    -2.0130 hc         1 FYC       0.063667
     36 H10         10.6600    -3.9190    -2.5450 DU         1 FYC       0.274000
     37 H12          8.4910    -5.2080    -4.0370 ha         1 FYC       0.126000
     38 H13          9.0900    -7.5090    -4.6710 ha         1 FYC       0.110000
     39 H14         11.4430    -8.2370    -4.6190 ha         1 FYC       0.108000
     40 H15         13.2150    -6.6690    -3.9400 ha         1 FYC       0.125000
@<TRIPOS>BOND
     1     1     2 1   
     2     2     3 1   
     3     2    24 1   
     4     3     4 1   
     5     3    25 1   
     6     4     5 1   
     7     4    23 1   
     8     5     6 1   
     9     5    27 1   
    10     6     7 1   
    11     6    28 1   
    12     7     8 1   
    13     7    22 1   
    14     8     9 1   
    15     8    29 1   
    16     8    30 1   
    17     9    10 1   
    18     9    32 1   
    19    10    11 1   
    20    10    21 1   
    21    11    12 1   
    22    11    13 1   
    23    12    33 1   
    24    12    34 1   
    25    12    35 1   
    26    13    14 1   
    27    13    36 1   
    28    14    15 1   
    29    14    19 1   
    30    14    36 1   
    31    15    16 1   
    32    15    37 1   
    33    16    17 1   
    34    16    38 1   
    35    17    18 1   
    36    17    39 1   
    37    18    19 1   
    38    18    40 1   
    39    19    20 1   
    40    22    23 1   
    41    22    31 1   
    42    23    24 1   
    43    24    26 1   
@<TRIPOS>SUBSTRUCTURE
     1 FYC         1 TEMP              0 ****  ****    0 ROOT
