@<TRIPOS>MOLECULE
FYD
   48    50     1     0     0
SMALL
bcc


@<TRIPOS>ATOM
      1 C14          0.0000     0.0000     0.0000 c          1 FYD       0.718700
      2 C16         -0.0410    -0.0000     2.4900 ca         1 FYD      -0.008000
      3 C17         -0.7360     0.0000     3.6790 ca         1 FYD      -0.161000
      4 C19         -2.8210     0.0010     2.4890 ca         1 FYD      -0.231000
      5 C20         -2.1390     0.0000     1.2820 ca         1 FYD       0.222100
      6 C22         -4.2510    -0.0010     0.1960 c3         1 FYD       0.235700
      7 C29          4.4290     4.7680     3.8940 ca         1 FYD      -0.015000
      8 C30          5.7670     4.8160     3.5460 ca         1 FYD      -0.107000
      9 C31          6.1580     4.5790     2.2410 ca         1 FYD      -0.047000
     10 C32          5.2140     4.2930     1.2760 ca         1 FYD      -0.100000
     11 O01          1.9190     4.7020     0.4060 o          1 FYD      -0.596100
     12 C02          2.8460     3.9370     0.5910 c          1 FYD       0.575700
     13 N03          2.9460     2.8100    -0.1410 ns         1 FYD      -0.183900
     14 C05          2.2800     1.2010    -1.8310 ca         1 FYD      -0.129300
     15 C06          2.9110     1.1990    -3.0600 ca         1 FYD      -0.047000
     16 C07          3.2240     0.0000    -3.6760 ca         1 FYD       0.022100
     17 Br1          4.0880     0.0020    -5.3580 br         1 FYD      -0.110100
     18 C09          2.9060    -1.1990    -3.0630 ca         1 FYD      -0.044000
     19 C10          2.2750    -1.2010    -1.8340 ca         1 FYD       0.013100
     20 Br2          1.8410    -2.8410    -0.9970 br         1 FYD      -0.089100
     21 C12          1.9640    -0.0000    -1.2120 ca         1 FYD       0.172100
     22 O13          1.3480     0.0000     0.0000 os         1 FYD      -0.325200
     23 C15         -0.7370    -0.0010     1.2760 ca         1 FYD      -0.193600
     24 C18         -2.1220     0.0000     3.6800 ca         1 FYD      -0.013000
     25 O23         -0.6080     0.0040    -1.0530 o          1 FYD      -0.550000
     26 C24          3.8630     4.2440     1.6190 ca         1 FYD      -0.052600
     27 C25          3.4750     4.4830     2.9390 ca         1 FYD      -0.404200
     28 N26          2.0450     4.4270     3.3140 no         1 FYD       1.039200
     29 O27          1.2160     4.0600     2.5000 o          1 FYD      -0.437500
     30 O28          1.6950     4.7460     4.4360 o          1 FYD      -0.437500
     31 H1           1.0420    -0.0010     2.4940 ha         1 FYD       0.111000
     32 H2          -0.1960    -0.0000     4.6190 ha         1 FYD       0.110000
     33 H3          -3.9040     0.0010     2.4980 ha         1 FYD       0.126000
     34 H4          -4.6710    -0.0010    -0.8030 h1         1 FYD      -0.000633
     35 H5          -4.5810    -0.8850     0.7270 h1         1 FYD      -0.000633
     36 H6          -4.5810     0.8840     0.7260 h1         1 FYD      -0.000633
     37 H7           4.1300     4.9550     4.9180 ha         1 FYD       0.135000
     38 H8           6.5120     5.0400     4.3000 ha         1 FYD       0.115000
     39 H9           7.2080     4.6180     1.9750 ha         1 FYD       0.110000
     40 H10          5.5220     4.1080     0.2540 ha         1 FYD       0.116000
     41 H11          3.7290     2.2000    -0.0150 hn         1 FYD       0.174500
     42 H12          0.9640     2.4290    -0.6930 h1         1 FYD       0.041200
     43 H13          1.9220     3.2990    -1.8990 h1         1 FYD       0.041200
     44 H14          3.1560     2.1360    -3.5430 ha         1 FYD       0.124000
     45 H15          3.1530    -2.1360    -3.5480 ha         1 FYD       0.132000
     46 H16         -2.6600     0.0010     4.6200 ha         1 FYD       0.101000
     47 O21         -2.8250    -0.0010     0.1120 os         1 FYD      -0.266900
     48 C04          1.9380     2.5070    -1.1600 c3         1 FYD       0.114300
@<TRIPOS>BOND
     1     1    22 1   
     2     1    23 1   
     3     1    25 2   
     4     2     3 ar  
     5     2    23 ar  
     6     2    31 1   
     7     3    24 ar  
     8     3    32 1   
     9     4     5 ar  
    10     4    24 ar  
    11     4    33 1   
    12     5    23 ar  
    13     5    47 1   
    14     6    34 1   
    15     6    35 1   
    16     6    36 1   
    17     6    47 1   
    18     7     8 ar  
    19     7    27 ar  
    20     7    37 1   
    21     8     9 ar  
    22     8    38 1   
    23     9    10 ar  
    24     9    39 1   
    25    10    26 ar  
    26    10    40 1   
    27    11    12 2   
    28    12    13 1   
    29    12    26 1   
    30    13    41 1   
    31    13    48 1   
    32    14    15 ar  
    33    14    21 ar  
    34    14    48 1   
    35    15    16 ar  
    36    15    44 1   
    37    16    17 1   
    38    16    18 ar  
    39    18    19 ar  
    40    18    45 1   
    41    19    20 1   
    42    19    21 ar  
    43    21    22 1   
    44    24    46 1   
    45    26    27 ar  
    46    27    28 1   
    47    28    29 1   
    48    28    30 1   
    49    42    48 1   
    50    43    48 1   
@<TRIPOS>SUBSTRUCTURE
     1 FYD         1 TEMP              0 ****  ****    0 ROOT
