@<TRIPOS>MOLECULE
molecule
   48    50     1     0     0
SMALL
bcc


@<TRIPOS>ATOM
      1 C14          0.0000     0.0000     0.0000 c          1 FYD       0.652700
      2 C16         -0.0410    -0.0000     2.4900 ca         1 FYD      -0.036000
      3 C17         -0.7360     0.0000     3.6790 ca         1 FYD      -0.182000
      4 C19         -2.8210     0.0010     2.4890 ca         1 FYD      -0.238000
      5 C20         -2.1390     0.0000     1.2820 ca         1 FYD       0.206100
      6 C22         -4.2510    -0.0010     0.1960 c3         1 FYD       0.122700
      7 C29          4.4290     4.7680     3.8940 ca         1 FYD      -0.074000
      8 C30          5.7670     4.8160     3.5460 ca         1 FYD      -0.122000
      9 C31          6.1580     4.5790     2.2410 ca         1 FYD      -0.094000
     10 C32          5.2140     4.2930     1.2760 ca         1 FYD      -0.115000
     11 O01          1.9190     4.7020     0.4060 o          1 FYD      -0.559100
     12 C02          2.8460     3.9370     0.5910 c          1 FYD       0.665700
     13 N03          2.9460     2.8100    -0.1410 ns         1 FYD      -0.574900
     14 C05          2.2800     1.2010    -1.8310 ca         1 FYD      -0.117300
     15 C06          2.9110     1.1990    -3.0600 ca         1 FYD      -0.070000
     16 C07          3.2240     0.0000    -3.6760 ca         1 FYD      -0.025900
     17 Br1          4.0880     0.0020    -5.3580 br         1 FYD      -0.076100
     18 C09          2.9060    -1.1990    -3.0630 ca         1 FYD      -0.062000
     19 C10          2.2750    -1.2010    -1.8340 ca         1 FYD      -0.026900
     20 Br2          1.8410    -2.8410    -0.9970 br         1 FYD      -0.060100
     21 C12          1.9640    -0.0000    -1.2120 ca         1 FYD       0.165100
     22 O13          1.3480     0.0000     0.0000 os         1 FYD      -0.343200
     23 C15         -0.7370    -0.0010     1.2760 ca         1 FYD      -0.166600
     24 C18         -2.1220     0.0000     3.6800 ca         1 FYD      -0.050000
     25 O23         -0.6080     0.0040    -1.0530 o          1 FYD      -0.504000
     26 C24          3.8630     4.2440     1.6190 ca         1 FYD      -0.080600
     27 C25          3.4750     4.4830     2.9390 ca         1 FYD      -0.118200
     28 N26          2.0450     4.4270     3.3140 no         1 FYD       0.289200
     29 O27          1.2160     4.0600     2.5000 o          1 FYD      -0.189000
     30 O28          1.6950     4.7460     4.4360 o          1 FYD      -0.189000
     31 H1           1.0420    -0.0010     2.4940 ha         1 FYD       0.149000
     32 H2          -0.1960    -0.0000     4.6190 ha         1 FYD       0.138000
     33 H3          -3.9040     0.0010     2.4980 ha         1 FYD       0.143000
     34 H4          -4.6710    -0.0010    -0.8030 h1         1 FYD       0.044367
     35 H5          -4.5810    -0.8850     0.7270 h1         1 FYD       0.044367
     36 H6          -4.5810     0.8840     0.7260 h1         1 FYD       0.044367
     37 H7           4.1300     4.9550     4.9180 ha         1 FYD       0.170000
     38 H8           6.5120     5.0400     4.3000 ha         1 FYD       0.149000
     39 H9           7.2080     4.6180     1.9750 ha         1 FYD       0.146000
     40 H10          5.5220     4.1080     0.2540 ha         1 FYD       0.151000
     41 H11          3.7290     2.2000    -0.0150 hn         1 FYD       0.317500
     42 H12          0.9640     2.4290    -0.6930 h1         1 FYD       0.072200
     43 H13          1.9220     3.2990    -1.8990 h1         1 FYD       0.072200
     44 H14          3.1560     2.1360    -3.5430 ha         1 FYD       0.155000
     45 H15          3.1530    -2.1360    -3.5480 ha         1 FYD       0.163000
     46 H16         -2.6600     0.0010     4.6200 ha         1 FYD       0.135000
     47 O21         -2.8250    -0.0010     0.1120 os         1 FYD      -0.289900
     48 C04          1.9380     2.5070    -1.1600 c3         1 FYD       0.169300
@<TRIPOS>BOND
     1     8     9 ar
     2     8     7 ar
     3     9    10 ar
     4     7    27 ar
     5    29    28 1
     6    10    26 ar
     7    27    28 1
     8    27    26 ar
     9    28    30 1
    10    26    12 1
    11    12    11 2
    12    12    13 1
    13    13    48 1
    14    17    16 1
    15    48    14 1
    16    15    14 ar
    17    15    16 ar
    18    14    21 ar
    19    16    18 ar
    20    21    19 ar
    21    21    22 1
    22    18    19 ar
    23     2     3 ar
    24     2    23 ar
    25     3    24 ar
    26    19    20 1
    27    22     1 1
    28    25     1 2
    29     1    23 1
    30    23     5 ar
    31    24     4 ar
    32     5     4 ar
    33     5    47 1
    34    47     6 1
    35     2    31 1
    36     3    32 1
    37     4    33 1
    38     6    34 1
    39     6    35 1
    40     6    36 1
    41     7    37 1
    42     8    38 1
    43     9    39 1
    44    10    40 1
    45    13    41 1
    46    48    42 1
    47    48    43 1
    48    15    44 1
    49    18    45 1
    50    24    46 1
@<TRIPOS>SUBSTRUCTURE
     1 FYD         1 TEMP              0 ****  ****    0 ROOT
