@<TRIPOS>MOLECULE
FYH
   46    48     1     0     0
SMALL
bcc


@<TRIPOS>ATOM
      1 C2           0.0000     0.0000     0.0000 c3         1 FYH       0.755700
      2 C41        -12.5110     3.0540    -4.4810 c3         1 FYH       0.215400
      3 C44        -12.2780     2.8230    -2.9860 c3         1 FYH       0.104300
      4 C11         -4.5680    -1.6360    -0.9460 ca         1 FYH      -0.108400
      5 C12         -4.0380    -0.5240    -0.3040 ca         1 FYH      -0.076000
      6 C14         -2.6690    -0.3690    -0.2130 ca         1 FYH      -0.138000
      7 C18         -6.7520    -0.7150    -1.1530 c          1 FYH       0.586700
      8 C20         -8.2220    -0.8740    -1.1330 ca         1 FYH      -0.164600
      9 C21         -9.0500     0.2430    -1.2580 ca         1 FYH      -0.009000
     10 C23        -10.4200     0.0880    -1.2390 ca         1 FYH      -0.102300
     11 C24        -10.9750    -1.1710    -1.0950 ca         1 FYH      -0.076000
     12 C26        -10.1600    -2.2820    -0.9690 ca         1 FYH      -0.108000
     13 C28         -8.7880    -2.1420    -0.9930 ca         1 FYH      -0.085000
     14 C30        -11.3150     1.2930    -1.3730 c3         1 FYH       0.213100
     15 F1           1.4000     0.0000     0.0000 f          1 FYH      -0.197300
     16 F3          -0.4660     0.0000     1.3180 f          1 FYH      -0.197300
     17 F4          -0.4670     1.1420    -0.6600 f          1 FYH      -0.197300
     18 O5          -0.4760    -1.1670    -0.6740 os         1 FYH      -0.314900
     19 C6          -1.8230    -1.3210    -0.7630 ca         1 FYH       0.121100
     20 C7          -2.3520    -2.4310    -1.4050 ca         1 FYH      -0.138000
     21 C9          -3.7220    -2.5920    -1.4920 ca         1 FYH      -0.076000
     22 O19         -6.2630     0.3920    -1.2760 o          1 FYH      -0.634100
     23 N33        -11.6090     1.5290    -2.7930 n3         1 FYH      -0.532600
     24 C34        -12.4180     0.4360    -3.3530 c3         1 FYH       0.104300
     25 C37        -12.6480     0.6910    -4.8450 c3         1 FYH       0.215400
     26 O40        -13.2720     1.9670    -5.0130 os         1 FYH      -0.412600
     27 H2         -11.5560     3.1100    -4.9900 h1         1 FYH       0.013450
     28 H3         -11.6510     3.6140    -2.5920 h1         1 FYH       0.019200
     29 H4         -13.2300     2.8170    -2.4690 h1         1 FYH       0.019200
     30 H5          -4.6970     0.2210     0.1240 ha         1 FYH       0.126500
     31 H6          -2.2550     0.4980     0.2870 ha         1 FYH       0.125500
     32 H7          -8.6170     1.2300    -1.3710 ha         1 FYH       0.133000
     33 H8         -12.0520    -1.2880    -1.0780 ha         1 FYH       0.108000
     34 H9         -10.6000    -3.2660    -0.8590 ha         1 FYH       0.106000
     35 H10         -8.1520    -3.0130    -0.8940 ha         1 FYH       0.100000
     36 H11        -12.2400     1.1170    -0.8370 h1         1 FYH       0.015200
     37 H12        -10.8170     2.1610    -0.9580 h1         1 FYH       0.015200
     38 H13         -1.6920    -3.1760    -1.8330 ha         1 FYH       0.125500
     39 H14         -4.1350    -3.4590    -1.9920 ha         1 FYH       0.126500
     40 H17        -13.3720     0.3960    -2.8420 h1         1 FYH       0.019200
     41 H18        -11.8930    -0.5030    -3.2240 h1         1 FYH       0.019200
     42 H19        -11.6970     0.6830    -5.3630 h1         1 FYH       0.013450
     43 H20        -13.2930    -0.0810    -5.2470 h1         1 FYH       0.013450
     44 N16         -5.9560    -1.7950    -1.0370 ns         1 FYH      -0.035100
     45 H1         -13.0560     3.9800    -4.6220 h1         1 FYH       0.013450
     46 H15         -6.3570    -2.7120    -1.0210 hn         1 FYH       0.174500
@<TRIPOS>BOND
     1     1    15 1   
     2     1    16 1   
     3     1    17 1   
     4     1    18 1   
     5     2     3 1   
     6     2    26 1   
     7     2    27 1   
     8     2    45 1   
     9     3    23 1   
    10     3    28 1   
    11     3    29 1   
    12     4     5 ar  
    13     4    21 ar  
    14     4    44 1   
    15     5     6 ar  
    16     5    30 1   
    17     6    19 ar  
    18     6    31 1   
    19     7     8 1   
    20     7    22 2   
    21     7    44 1   
    22     8     9 ar  
    23     8    13 ar  
    24     9    10 ar  
    25     9    32 1   
    26    10    11 ar  
    27    10    14 1   
    28    11    12 ar  
    29    11    33 1   
    30    12    13 ar  
    31    12    34 1   
    32    13    35 1   
    33    14    23 1   
    34    14    36 1   
    35    14    37 1   
    36    18    19 1   
    37    19    20 ar  
    38    20    21 ar  
    39    20    38 1   
    40    21    39 1   
    41    23    24 1   
    42    24    25 1   
    43    24    40 1   
    44    24    41 1   
    45    25    26 1   
    46    25    42 1   
    47    25    43 1   
    48    44    46 1   
@<TRIPOS>SUBSTRUCTURE
     1 FYH         1 TEMP              0 ****  ****    0 ROOT
