@<TRIPOS>MOLECULE
molecule
   32    33     1     0     0
SMALL
bcc


@<TRIPOS>ATOM
      1 C10          0.0000     0.0000     0.0000 c          1 FYJ       0.898600
      2 C02          3.8280     0.0000     0.0000 c3         1 FYJ       0.110100
      3 C03          3.9710     0.0000     1.5250 c3         1 FYJ       0.097100
      4 C05          2.8970     0.9070     2.1310 c3         1 FYJ       0.208200
      5 C07          1.3970     0.4730     0.3100 c3         1 FYJ       0.021100
      6 C08          2.4110    -0.4510    -0.3690 c3         1 FYJ       0.112100
      7 C14          1.8220     2.0520     4.4470 ca         1 FYJ       0.058900
      8 C15          1.0790     2.7420     3.4960 ca         1 FYJ      -0.114000
      9 C16          0.1420     3.6740     3.8980 ca         1 FYJ      -0.122000
     10 C17         -0.0580     3.9210     5.2440 ca         1 FYJ      -0.146000
     11 C18          0.6790     3.2360     6.1930 ca         1 FYJ      -0.122000
     12 C19          1.6170     2.3030     5.7980 ca         1 FYJ      -0.114000
     13 O01          4.7810    -0.8990    -0.5700 oh         1 FYJ      -0.598800
     14 O04          5.2650     0.4890     1.8820 oh         1 FYJ      -0.595800
     15 O06          1.6050     0.4500     1.7230 os         1 FYJ      -0.370600
     16 O09          2.2420    -0.3860    -1.7870 oh         1 FYJ      -0.555800
     17 O11         -0.7100    -0.4090     0.8880 o          1 FYJ      -0.814300
     18 O12         -0.4570     0.0380    -1.2610 o          1 FYJ      -0.814300
     19 S13          3.0130     0.8580     3.9400 ss         1 FYJ      -0.258000
     20 H1           3.9970     1.0010    -0.3770 h1         1 FYJ       0.099700
     21 H2           3.8440    -1.0090     1.8990 h1         1 FYJ       0.047700
     22 H3           3.0450     1.9220     1.7820 h2         1 FYJ       0.060700
     23 H4           1.5300     1.4840    -0.0560 h1         1 FYJ       0.043700
     24 H5           2.2570    -1.4670    -0.0280 h1         1 FYJ       0.039700
     25 H6           1.2850     2.6010     2.4420 ha         1 FYJ       0.142000
     26 H7          -0.4370     4.2120     3.1570 ha         1 FYJ       0.125000
     27 H8          -0.7930     4.6540     5.5550 ha         1 FYJ       0.117000
     28 H9           0.5200     3.4310     7.2470 ha         1 FYJ       0.125000
     29 H10          2.1800     1.7880     6.5680 ha         1 FYJ       0.142000
     30 H11          4.7040    -1.7430    -0.1570 ho         1 FYJ       0.387000
     31 H12          5.6740    -0.1130     2.4820 ho         1 FYJ       0.398000
     32 H13          2.3000    -1.2540    -2.1500 ho         1 FYJ       0.394000
@<TRIPOS>BOND
     1    17     1 1
     2    18     1 1
     3    16     6 1
     4     1     5 1
     5     6     5 1
     6     6     2 1
     7     5    15 1
     8    13     2 1
     9    15     4 1
    10     2     3 1
    11     3     4 1
    12     3    14 1
    13     4    19 1
    14     8     9 ar
    15     8     7 ar
    16    19     7 1
    17     9    10 ar
    18     7    12 ar
    19    10    11 ar
    20    12    11 ar
    21     2    20 1
    22     3    21 1
    23     4    22 1
    24     5    23 1
    25     6    24 1
    26     8    25 1
    27     9    26 1
    28    10    27 1
    29    11    28 1
    30    12    29 1
    31    13    30 1
    32    14    31 1
    33    16    32 1
@<TRIPOS>SUBSTRUCTURE
     1 FYJ         1 TEMP              0 ****  ****    0 ROOT
