@<TRIPOS>MOLECULE
molecule
   31    33     1     0     0
SMALL
bcc


@<TRIPOS>ATOM
      1 C4           0.0000     0.0000     0.0000 ca         1 FYK      -0.077000
      2 C5           1.3820     0.0000     0.0000 ca         1 FYK      -0.014600
      3 C6           2.0790     0.0000     1.2020 ca         1 FYK       0.159100
      4 C7           4.0920     0.1490     2.4590 cx         1 FYK       0.075100
      5 C8           5.5300     0.6700     2.4530 cx         1 FYK      -0.143900
      6 C10          1.3930    -0.0020     2.4050 ca         1 FYK      -0.206000
      7 C12         -2.1450    -0.0040     2.8700 c          1 FYK       0.817600
      8 N           -2.0490    -0.0030     1.5260 n          1 FYK      -0.362000
      9 C2          -3.1670    -0.0020     0.5780 c3         1 FYK       0.131000
     10 C1          -3.5560     1.4400     0.2490 c3         1 FYK      -0.207400
     11 C           -4.7050     1.4400    -0.7260 c          1 FYK       0.895600
     12 O1          -5.1640     0.3940    -1.1180 o          1 FYK      -0.846800
     13 O           -5.2170     2.6030    -1.1590 o          1 FYK      -0.846800
     14 O3          -0.9140    -0.0040     3.4060 os         1 FYK      -0.288200
     15 C11          0.0070    -0.0020     2.4090 ca         1 FYK       0.060100
     16 C3          -0.6900    -0.0020     1.2010 ca         1 FYK      -0.013400
     17 Cl           2.2490     0.0020    -1.5040 cl         1 FYK      -0.094400
     18 O2           3.4380    -0.0010     1.1970 os         1 FYK      -0.282900
     19 C9           5.2500    -0.8000     2.7730 cx         1 FYK      -0.143900
     20 H1          -0.2590    -0.0820    -1.0490 ha         1 FYK       0.172000
     21 H2           3.5060     0.4490     3.3200 h1         1 FYK       0.092700
     22 H3           5.9530     0.8620     1.4740 hc         1 FYK       0.080450
     23 H4           5.8080     1.2870     3.2980 hc         1 FYK       0.080450
     24 H5           1.5790    -0.0930     3.4680 ha         1 FYK       0.164000
     25 H6          -2.8700    -0.5130    -0.3310 h1         1 FYK       0.076200
     26 H7          -4.0140    -0.5140     1.0180 h1         1 FYK       0.076200
     27 H8          -2.7080     1.9510    -0.1920 hc         1 FYK       0.043700
     28 H9          -3.8530     1.9500     1.1570 hc         1 FYK       0.043700
     29 H11          5.3560    -1.0800     3.8140 hc         1 FYK       0.080450
     30 H12          5.5020    -1.5050     1.9900 hc         1 FYK       0.080450
     31 O4          -3.1840    -0.0060     3.5000 o          1 FYK      -0.602500
@<TRIPOS>BOND
     1    12    11 1
     2    11    13 1
     3    11    10 1
     4    17     2 1
     5    10     9 1
     6     1     2 ar
     7     1    16 ar
     8     9     8 1
     9     2     3 ar
    10    16     8 1
    11    16    15 ar
    12     8     7 1
    13     3    18 1
    14     3     6 ar
    15    18     4 1
    16    15     6 ar
    17    15    14 1
    18     7    31 2
    19     7    14 1
    20    19     4 1
    21    19     5 1
    22     4     5 1
    23     1    20 1
    24     4    21 1
    25     5    22 1
    26     5    23 1
    27     6    24 1
    28     9    25 1
    29     9    26 1
    30    10    27 1
    31    10    28 1
    32    19    29 1
    33    19    30 1
@<TRIPOS>SUBSTRUCTURE
     1 FYK         1 TEMP              0 ****  ****    0 ROOT
