@<TRIPOS>MOLECULE
FYK
   31    33     1     0     0
SMALL
bcc


@<TRIPOS>ATOM
      1 C4           0.0000     0.0000     0.0000 ca         1 FYK      -0.037000
      2 C5           1.3820     0.0000     0.0000 ca         1 FYK      -0.099600
      3 C6           2.0790     0.0000     1.2020 ca         1 FYK       0.172100
      4 C7           4.0920     0.1490     2.4590 cx         1 FYK       0.102100
      5 C8           5.5300     0.6700     2.4530 cx         1 FYK      -0.093400
      6 C10          1.3930    -0.0020     2.4050 ca         1 FYK      -0.195000
      7 C12         -2.1450    -0.0040     2.8700 c          1 FYK       0.745600
      8 N           -2.0490    -0.0030     1.5260 n          1 FYK       0.025000
      9 C2          -3.1670    -0.0020     0.5780 c3         1 FYK       0.062000
     10 C1          -3.5560     1.4400     0.2490 c3         1 FYK      -0.158400
     11 C           -4.7050     1.4400    -0.7260 c          1 FYK       0.986600
     12 O1          -5.1640     0.3940    -1.1180 o          1 FYK      -0.896300
     13 O           -5.2170     2.6030    -1.1590 o          1 FYK      -0.896300
     14 O3          -0.9140    -0.0040     3.4060 os         1 FYK      -0.267200
     15 C11          0.0070    -0.0020     2.4090 ca         1 FYK       0.062100
     16 C3          -0.6900    -0.0020     1.2010 ca         1 FYK      -0.150400
     17 Cl           2.2490     0.0020    -1.5040 cl         1 FYK      -0.013400
     18 O2           3.4380    -0.0010     1.1970 os         1 FYK      -0.258900
     19 C9           5.2500    -0.8000     2.7730 cx         1 FYK      -0.093400
     20 H1          -0.2590    -0.0820    -1.0490 ha         1 FYK       0.137000
     21 H2           3.5060     0.4490     3.3200 h1         1 FYK       0.064700
     22 H3           5.9530     0.8620     1.4740 hc         1 FYK       0.048950
     23 H4           5.8080     1.2870     3.2980 hc         1 FYK       0.048950
     24 H5           1.5790    -0.0930     3.4680 ha         1 FYK       0.141000
     25 H6          -2.8700    -0.5130    -0.3310 h1         1 FYK       0.047200
     26 H7          -4.0140    -0.5140     1.0180 h1         1 FYK       0.047200
     27 H8          -2.7080     1.9510    -0.1920 hc         1 FYK       0.017200
     28 H9          -3.8530     1.9500     1.1570 hc         1 FYK       0.017200
     29 H11          5.3560    -1.0800     3.8140 hc         1 FYK       0.048950
     30 H12          5.5020    -1.5050     1.9900 hc         1 FYK       0.048950
     31 O4          -3.1840    -0.0060     3.5000 o          1 FYK      -0.662500
@<TRIPOS>BOND
     1     1     2 ar  
     2     1    16 ar  
     3     1    20 1   
     4     2     3 ar  
     5     2    17 1   
     6     3     6 ar  
     7     3    18 1   
     8     4     5 1   
     9     4    18 1   
    10     4    19 1   
    11     4    21 1   
    12     5    19 1   
    13     5    22 1   
    14     5    23 1   
    15     6    15 ar  
    16     6    24 1   
    17     7     8 1   
    18     7    14 1   
    19     7    31 2   
    20     8     9 1   
    21     8    16 1   
    22     9    10 1   
    23     9    25 1   
    24     9    26 1   
    25    10    11 1   
    26    10    27 1   
    27    10    28 1   
    28    11    12 1   
    29    11    13 1   
    30    14    15 1   
    31    15    16 ar  
    32    19    29 1   
    33    19    30 1   
@<TRIPOS>SUBSTRUCTURE
     1 FYK         1 TEMP              0 ****  ****    0 ROOT
