@<TRIPOS>MOLECULE
FYM
   63    66     1     0     0
SMALL
bcc


@<TRIPOS>ATOM
      1 C1           0.0000     0.0000     0.0000 ca         1 FYM      -0.158000
      2 C2           1.3850     0.0000     0.0000 ca         1 FYM      -0.204000
      3 C3           3.4320     2.6730     8.4670 ca         1 FYM      -0.079500
      4 C4           5.6260     1.8060     8.8880 ca         1 FYM      -0.079500
      5 C5          -0.6990     0.0010     1.1900 ca         1 FYM      -0.244000
      6 C6           3.3980     3.2140     9.7380 ca         1 FYM      -0.150500
      7 C7           5.5970     2.3450    10.1590 ca         1 FYM      -0.150500
      8 C8           6.2470     4.2910     3.9400 ca         1 FYM      -0.084000
      9 C9           6.5070     3.6390     1.2490 ca         1 FYM      -0.103000
     10 C10          5.8410     3.0360     3.4780 ca         1 FYM      -0.090600
     11 C11          1.3870     0.0010     2.4030 ca         1 FYM      -0.064600
     12 C12          4.5450     1.9700     8.0420 ca         1 FYM      -0.076300
     13 C13          2.0810     0.0000     1.1890 ca         1 FYM       0.016700
     14 C14          5.9740     2.7170     2.1250 ca         1 FYM      -0.030300
     15 C15          6.7800     5.2100     3.0580 ca         1 FYM       0.041100
     16 C16          6.9120     4.8850     1.7070 ca         1 FYM       0.035100
     17 C17          4.4820     3.0510    10.5880 ca         1 FYM       0.103100
     18 C18         -0.0160     0.0020     2.3990 ca         1 FYM       0.166100
     19 C20          2.1240     0.0010     3.6790 c          1 FYM       1.004200
     20 C21          8.0380     6.7760     2.0830 c3         1 FYM       0.408200
     21 C22          3.6770     2.2780     0.3690 c3         1 FYM       0.137100
     22 C23          4.0840     2.6590    12.8380 c3         1 FYM       0.251700
     23 C24         -2.1280     0.0030     3.4860 c3         1 FYM       0.224700
     24 C25          4.5780     1.3820     6.6560 c3         1 FYM       0.064300
     25 C26          3.5880    -0.0010     1.1830 c3         1 FYM       0.116100
     26 C27          5.5370     1.3660     1.6220 c3         1 FYM       0.230100
     27 N28          5.1420     2.3600     5.7230 ns         1 FYM      -0.203900
     28 N29          4.0800     1.3580     1.4420 n3         1 FYM      -0.439600
     29 O30          2.3280     1.0470     4.2630 o          1 FYM      -0.886300
     30 O31          4.9190     0.9590     4.0140 o          1 FYM      -0.527100
     31 O32          2.5710    -1.1600     4.1980 o          1 FYM      -0.886300
     32 O33          7.2450     6.4800     3.2480 os         1 FYM      -0.317900
     33 O34          7.4580     5.9510     1.0550 os         1 FYM      -0.307900
     34 O35          4.4730     3.5740    11.8430 os         1 FYM      -0.334900
     35 O36         -0.7010     0.0030     3.5680 os         1 FYM      -0.269900
     36 H1          -0.5410     0.0310    -0.9380 ha         1 FYM       0.078000
     37 H2           1.3690    -0.1160    -1.0770 ha         1 FYM       0.117000
     38 H5          -1.7670     0.0500     1.0160 ha         1 FYM       0.102000
     39 H3           2.5920     2.8120     7.7970 ha         1 FYM       0.119000
     40 H6           2.5370     3.7850    10.0600 ha         1 FYM       0.107000
     41 H4           6.5110     1.1820     8.8680 ha         1 FYM       0.119000
     42 H7           6.5340     2.2140    10.6870 ha         1 FYM       0.107000
     43 H8           6.2430     4.5010     5.0020 ha         1 FYM       0.113000
     44 H9           6.6280     3.3840     0.2030 ha         1 FYM       0.111000
     45 H251         5.0230     0.3950     6.6930 h1         1 FYM       0.072700
     46 H252         3.5680     1.3080     6.2700 h1         1 FYM       0.072700
     47 H261         3.9460     0.5900     0.3490 h1         1 FYM       0.043200
     48 H262         3.9470    -1.0180     1.0850 h1         1 FYM       0.043200
     49 H271         5.7230     1.2990     0.5570 h1         1 FYM       0.007700
     50 H272         6.0970     0.5920     2.1350 h1         1 FYM       0.007700
     51 H28          5.3510     3.2870     6.0370 hn         1 FYM       0.159500
     52 H211         7.6210     7.6260     1.5560 h2         1 FYM       0.010200
     53 H212         9.0630     6.9750     2.3720 h2         1 FYM       0.010200
     54 H221         3.8100     1.7930    -0.5910 h1         1 FYM       0.005033
     55 H222         4.2900     3.1710     0.4100 h1         1 FYM       0.005033
     56 H223         2.6360     2.5480     0.4960 h1         1 FYM       0.005033
     57 H231         3.0160     2.7390    13.0050 h1         1 FYM      -0.013967
     58 H232         4.3250     1.6520    12.5170 h1         1 FYM      -0.013967
     59 H233         4.6110     2.8810    13.7580 h1         1 FYM      -0.013967
     60 H241        -2.4360    -0.4560     2.5540 h1         1 FYM      -0.012967
     61 H242        -2.5370    -0.5580     4.3170 h1         1 FYM      -0.012967
     62 H243        -2.4910     1.0230     3.5240 h1         1 FYM      -0.012967
     63 C19          5.2710     2.0500     4.4170 c          1 FYM       0.560700
@<TRIPOS>BOND
     1     1     2 ar  
     2     1     5 ar  
     3     1    36 1   
     4     2    13 ar  
     5     2    37 1   
     6     3     6 ar  
     7     3    12 ar  
     8     3    39 1   
     9     4     7 ar  
    10     4    12 ar  
    11     4    41 1   
    12     5    18 ar  
    13     5    38 1   
    14     6    17 ar  
    15     6    40 1   
    16     7    17 ar  
    17     7    42 1   
    18     8    10 ar  
    19     8    15 ar  
    20     8    43 1   
    21     9    14 ar  
    22     9    16 ar  
    23     9    44 1   
    24    10    14 ar  
    25    10    63 1   
    26    11    13 ar  
    27    11    18 ar  
    28    11    19 1   
    29    12    24 1   
    30    13    25 1   
    31    14    26 1   
    32    15    16 ar  
    33    15    32 1   
    34    16    33 1   
    35    17    34 1   
    36    18    35 1   
    37    19    29 1   
    38    19    31 1   
    39    20    32 1   
    40    20    33 1   
    41    20    52 1   
    42    20    53 1   
    43    21    28 1   
    44    21    54 1   
    45    21    55 1   
    46    21    56 1   
    47    22    34 1   
    48    22    57 1   
    49    22    58 1   
    50    22    59 1   
    51    23    35 1   
    52    23    60 1   
    53    23    61 1   
    54    23    62 1   
    55    24    27 1   
    56    24    45 1   
    57    24    46 1   
    58    25    28 1   
    59    25    47 1   
    60    25    48 1   
    61    26    28 1   
    62    26    49 1   
    63    26    50 1   
    64    27    51 1   
    65    27    63 1   
    66    30    63 2   
@<TRIPOS>SUBSTRUCTURE
     1 FYM         1 TEMP              0 ****  ****    0 ROOT
