@<TRIPOS>MOLECULE
molecule
   63    66     1     0     0
SMALL
bcc


@<TRIPOS>ATOM
      1 C1           0.0000     0.0000     0.0000 ca         1 FYM      -0.175000
      2 C2           1.3850     0.0000     0.0000 ca         1 FYM      -0.210000
      3 C3           3.4320     2.6730     8.4670 ca         1 FYM      -0.107500
      4 C4           5.6260     1.8060     8.8880 ca         1 FYM      -0.107500
      5 C5          -0.6990     0.0010     1.1900 ca         1 FYM      -0.248000
      6 C6           3.3980     3.2140     9.7380 ca         1 FYM      -0.167500
      7 C7           5.5970     2.3450    10.1590 ca         1 FYM      -0.167500
      8 C8           6.2470     4.2910     3.9400 ca         1 FYM      -0.102000
      9 C9           6.5070     3.6390     1.2490 ca         1 FYM      -0.126000
     10 C10          5.8410     3.0360     3.4780 ca         1 FYM      -0.088600
     11 C11          1.3870     0.0010     2.4030 ca         1 FYM      -0.056600
     12 C12          4.5450     1.9700     8.0420 ca         1 FYM      -0.080300
     13 C13          2.0810     0.0000     1.1890 ca         1 FYM       0.004700
     14 C14          5.9740     2.7170     2.1250 ca         1 FYM      -0.026300
     15 C15          6.7800     5.2100     3.0580 ca         1 FYM       0.034100
     16 C16          6.9120     4.8850     1.7070 ca         1 FYM       0.030100
     17 C17          4.4820     3.0510    10.5880 ca         1 FYM       0.093100
     18 C18         -0.0160     0.0020     2.3990 ca         1 FYM       0.148100
     19 C20          2.1240     0.0010     3.6790 c          1 FYM       0.913200
     20 C21          8.0380     6.7760     2.0830 c3         1 FYM       0.314200
     21 C22          3.6770     2.2780     0.3690 c3         1 FYM       0.149100
     22 C23          4.0840     2.6590    12.8380 c3         1 FYM       0.133700
     23 C24         -2.1280     0.0030     3.4860 c3         1 FYM       0.125700
     24 C25          4.5780     1.3820     6.6560 c3         1 FYM       0.138300
     25 C26          3.5880    -0.0010     1.1830 c3         1 FYM       0.138100
     26 C27          5.5370     1.3660     1.6220 c3         1 FYM       0.250100
     27 N28          5.1420     2.3600     5.7230 ns         1 FYM      -0.585900
     28 N29          4.0800     1.3580     1.4420 n3         1 FYM      -0.678600
     29 O30          2.3280     1.0470     4.2630 o          1 FYM      -0.833800
     30 O31          4.9190     0.9590     4.0140 o          1 FYM      -0.494100
     31 O32          2.5710    -1.1600     4.1980 o          1 FYM      -0.833800
     32 O33          7.2450     6.4800     3.2480 os         1 FYM      -0.330900
     33 O34          7.4580     5.9510     1.0550 os         1 FYM      -0.320900
     34 O35          4.4730     3.5740    11.8430 os         1 FYM      -0.350900
     35 O36         -0.7010     0.0030     3.5680 os         1 FYM      -0.294900
     36 H1          -0.5410     0.0310    -0.9380 ha         1 FYM       0.095000
     37 H2           1.3690    -0.1160    -1.0770 ha         1 FYM       0.128000
     38 H5          -1.7670     0.0500     1.0160 ha         1 FYM       0.108000
     39 H3           2.5920     2.8120     7.7970 ha         1 FYM       0.147500
     40 H6           2.5370     3.7850    10.0600 ha         1 FYM       0.131000
     41 H4           6.5110     1.1820     8.8680 ha         1 FYM       0.147500
     42 H7           6.5340     2.2140    10.6870 ha         1 FYM       0.131000
     43 H8           6.2430     4.5010     5.0020 ha         1 FYM       0.139000
     44 H9           6.6280     3.3840     0.2030 ha         1 FYM       0.138000
     45 H251         5.0230     0.3950     6.6930 h1         1 FYM       0.098200
     46 H252         3.5680     1.3080     6.2700 h1         1 FYM       0.098200
     47 H261         3.9460     0.5900     0.3490 h1         1 FYM       0.075200
     48 H262         3.9470    -1.0180     1.0850 h1         1 FYM       0.075200
     49 H271         5.7230     1.2990     0.5570 h1         1 FYM       0.033200
     50 H272         6.0970     0.5920     2.1350 h1         1 FYM       0.033200
     51 H28          5.3510     3.2870     6.0370 hn         1 FYM       0.295500
     52 H211         7.6210     7.6260     1.5560 h2         1 FYM       0.065200
     53 H212         9.0630     6.9750     2.3720 h2         1 FYM       0.065200
     54 H221         3.8100     1.7930    -0.5910 h1         1 FYM       0.029367
     55 H222         4.2900     3.1710     0.4100 h1         1 FYM       0.029367
     56 H223         2.6360     2.5480     0.4960 h1         1 FYM       0.029367
     57 H231         3.0160     2.7390    13.0050 h1         1 FYM       0.028700
     58 H232         4.3250     1.6520    12.5170 h1         1 FYM       0.028700
     59 H233         4.6110     2.8810    13.7580 h1         1 FYM       0.028700
     60 H241        -2.4360    -0.4560     2.5540 h1         1 FYM       0.026367
     61 H242        -2.5370    -0.5580     4.3170 h1         1 FYM       0.026367
     62 H243        -2.4910     1.0230     3.5240 h1         1 FYM       0.026367
     63 C19          5.2710     2.0500     4.4170 c          1 FYM       0.653700
@<TRIPOS>BOND
     1     1     2 ar
     2     1     5 ar
     3     2    13 ar
     4     3     6 ar
     5     3    12 ar
     6     4     7 ar
     7     4    12 ar
     8     5    18 ar
     9     6    17 ar
    10     7    17 ar
    11     8    10 ar
    12     8    15 ar
    13     9    14 ar
    14     9    16 ar
    15    10    14 ar
    16    10    63 1
    17    11    13 ar
    18    11    18 ar
    19    11    19 1
    20    12    24 1
    21    13    25 1
    22    14    26 1
    23    15    16 ar
    24    15    32 1
    25    16    33 1
    26    17    34 1
    27    18    35 1
    28    63    27 1
    29    63    30 2
    30    19    29 1
    31    19    31 1
    32    20    32 1
    33    20    33 1
    34    21    28 1
    35    22    34 1
    36    23    35 1
    37    24    27 1
    38    25    28 1
    39    26    28 1
    40     1    36 1
    41     2    37 1
    42     5    38 1
    43     3    39 1
    44     6    40 1
    45     4    41 1
    46     7    42 1
    47     8    43 1
    48     9    44 1
    49    24    45 1
    50    24    46 1
    51    25    47 1
    52    25    48 1
    53    26    49 1
    54    26    50 1
    55    27    51 1
    56    20    52 1
    57    20    53 1
    58    21    54 1
    59    21    55 1
    60    21    56 1
    61    22    57 1
    62    22    58 1
    63    22    59 1
    64    23    60 1
    65    23    61 1
    66    23    62 1
@<TRIPOS>SUBSTRUCTURE
     1 FYM         1 TEMP              0 ****  ****    0 ROOT
