@<TRIPOS>MOLECULE
molecule
   30    32     1     0     0
SMALL
bcc


@<TRIPOS>ATOM
      1 NAA          8.4520    -2.0930     9.1180 n1         1 FYO      -0.313800
      2 OAB          0.0000     0.0000     0.0000 o          1 FYO      -0.598500
      3 OAC          3.7500    -0.0140    -2.3410 o          1 FYO      -0.572500
      4 CAE          8.3620    -1.6750     8.0690 cg         1 FYO       0.186500
      5 CAF          1.9140     0.0000     1.2830 ce         1 FYO      -0.283200
      6 CAG          4.0190    -0.0080     0.0140 c3         1 FYO      -0.235200
      7 CAH          8.0130     0.0150     3.9720 cc         1 FYO      -0.236200
      8 CAI          6.8680    -1.1050     5.9640 cd         1 FYO      -0.157000
      9 NAJ          3.4190     0.0140     3.8500 na         1 FYO      -0.090400
     10 NAK          1.8590    -0.0000    -1.1750 ns         1 FYO      -0.566500
     11 NAL          9.4230    -0.5840     5.9500 ns         1 FYO      -0.431100
     12 NAM          5.2940     0.0060     2.7780 nc         1 FYO      -0.681000
     13 NAN          4.3680     0.0180     4.7220 nc         1 FYO      -0.562800
     14 CAO          1.2160     0.0000     0.0000 c          1 FYO       0.685700
     15 CAP          3.2020    -0.0140    -1.2600 c          1 FYO       0.744500
     16 CAQ          9.2770    -0.0050     4.5880 c          1 FYO       0.715700
     17 CAR          8.2320    -1.1350     6.6460 cc         1 FYO       0.123900
     18 CAS          3.2670    -0.0010     1.3280 cf         1 FYO      -0.098000
     19 CAT          6.8270    -0.5430     4.6880 cd         1 FYO      -0.028800
     20 CAU          3.9820     0.0060     2.6100 cd         1 FYO       0.444300
     21 CAV          5.5270     0.0190     4.0960 cd         1 FYO       0.593800
     22 HAF          1.4810    -0.5760     2.0910 ha         1 FYO       0.166000
     23 HAG          4.8720    -0.6650     0.1320 hc         1 FYO       0.172700
     24 HAGA         3.7890     0.7760     0.7250 hc         1 FYO       0.172700
     25 HAH          8.0090     0.3700     2.9480 ha         1 FYO       0.193000
     26 HAI          5.9560    -1.4660     6.4230 ha         1 FYO       0.175000
     27 HNAK         1.2270     0.3110    -1.8860 hn         1 FYO       0.356500
     28 HNAL        10.0770    -1.2110     6.3750 hn         1 FYO       0.322500
     29 HNAJ         2.6510    -0.2670     4.4270 hn         1 FYO       0.366700
     30 OAD         10.1960     0.5430     4.0790 o          1 FYO      -0.564500
@<TRIPOS>BOND
     1     4     1 3
     2     2    14 2
     3     3    15 2
     4    16    30 2
     5    17     4 1
     6    14     5 1
     7     5    18 2
     8     5    22 1
     9    15     6 1
    10     6    18 1
    11     6    23 1
    12     6    24 1
    13    19     7 2
    14     7    16 1
    15     7    25 1
    16    19     8 1
    17     8    17 2
    18     8    26 1
    19    20     9 1
    20     9    13 1
    21    10    14 1
    22    10    15 1
    23    10    27 1
    24    16    11 1
    25    17    11 1
    26    11    28 1
    27    20    12 2
    28    12    21 1
    29    13    21 2
    30    18    20 1
    31    21    19 1
    32     9    29 1
@<TRIPOS>SUBSTRUCTURE
     1 FYO         1 TEMP              0 ****  ****    0 ROOT
