@<TRIPOS>MOLECULE
FYO
   30    33     1     0     0
SMALL
bcc


@<TRIPOS>ATOM
      1 NAA          8.4520    -2.0930     9.1180 n1         1 FYO      -0.011000
      2 OAB          0.0000     0.0000     0.0000 o          1 FYO      -0.362000
      3 OAC          3.7500    -0.0140    -2.3410 o          1 FYO      -0.339000
      4 CAE          8.3620    -1.6750     8.0690 c1         1 FYO      -0.127000
      5 CAF          1.9140     0.0000     1.2830 c2         1 FYO      -0.274000
      6 CAG          4.0190    -0.0080     0.0140 c3         1 FYO      -0.198000
      7 CAH          8.0130     0.0150     3.9720 c2         1 FYO      -0.205000
      8 CAI          6.8680    -1.1050     5.9640 c2         1 FYO      -0.126000
      9 NAJ          3.4190     0.0140     3.8500 na         1 FYO       0.368000
     10 NAK          1.8590    -0.0000    -1.1750 ns         1 FYO       0.065000
     11 NAL          9.4230    -0.5840     5.9500 ns         1 FYO       0.086000
     12 NAM          5.2940     0.0060     2.7780 n2         1 FYO      -0.077000
     13 NAN          4.3680     0.0180     4.7220 n2         1 FYO      -0.251000
     14 CAO          1.2160     0.0000     0.0000 c2         1 FYO       0.247000
     15 CAP          3.2020    -0.0140    -1.2600 c2         1 FYO       0.267000
     16 CAQ          9.2770    -0.0050     4.5880 c2         1 FYO       0.290000
     17 CAR          8.2320    -1.1350     6.6460 c2         1 FYO       0.028000
     18 CAS          3.2670    -0.0010     1.3280 c3         1 FYO       0.030000
     19 CAT          6.8270    -0.5430     4.6880 c2         1 FYO       0.073000
     20 CAU          3.9820     0.0060     2.6100 c2         1 FYO      -0.224000
     21 CAV          5.5270     0.0190     4.0960 c2         1 FYO      -0.061000
     22 HAF          1.4810    -0.5760     2.0910 ha         1 FYO       0.135000
     23 HAG          4.8720    -0.6650     0.1320 hc         1 FYO       0.163000
     24 HAGA         3.7890     0.7760     0.7250 DU         1 FYO       0.179000
     25 HAH          8.0090     0.3700     2.9480 ha         1 FYO       0.158000
     26 HAI          5.9560    -1.4660     6.4230 ha         1 FYO       0.142000
     27 HNAK         1.2270     0.3110    -1.8860 hn         1 FYO       0.119000
     28 HNAL        10.0770    -1.2110     6.3750 hn         1 FYO       0.099000
     29 HNAJ         2.6510    -0.2670     4.4270 hn         1 FYO       0.141000
     30 OAD         10.1960     0.5430     4.0790 o          1 FYO      -0.336000
@<TRIPOS>BOND
     1     1     4 1   
     2     2    14 1   
     3     3    15 1   
     4     4    17 1   
     5     5    14 1   
     6     5    18 1   
     7     5    22 1   
     8     6    15 1   
     9     6    18 1   
    10     6    23 1   
    11     6    24 1   
    12     7    16 1   
    13     7    19 1   
    14     7    25 1   
    15     8    17 1   
    16     8    19 1   
    17     8    26 1   
    18     9    13 1   
    19     9    20 1   
    20     9    29 1   
    21    10    14 1   
    22    10    15 1   
    23    10    27 1   
    24    11    16 1   
    25    11    17 1   
    26    11    28 1   
    27    12    20 1   
    28    12    21 1   
    29    13    21 1   
    30    16    30 1   
    31    18    20 1   
    32    18    24 1   
    33    19    21 1   
@<TRIPOS>SUBSTRUCTURE
     1 FYO         1 TEMP              0 ****  ****    0 ROOT
