@<TRIPOS>MOLECULE
FYP
   36    38     1     0     0
SMALL
bcc


@<TRIPOS>ATOM
      1 C01          0.0000     0.0000     0.0000 c3         1 FYP      -0.002100
      2 C02          1.5290     0.0000     0.0000 c3         1 FYP       0.222400
      3 C04          3.3500    -0.0010     1.5450 c          1 FYP       0.663600
      4 C06          3.9130    -0.0010     2.9060 cc         1 FYP       0.249800
      5 C07          5.2340    -0.0010     3.2320 cd         1 FYP      -0.373900
      6 C08          6.4050     0.0380     2.2840 c3         1 FYP       0.120300
      7 C10          7.7380     1.4420     3.7800 c          1 FYP       0.617100
      8 C12          7.6600     0.5570     4.9450 ca         1 FYP      -0.080600
      9 C13          6.4910    -0.0980     5.3350 ca         1 FYP      -0.181200
     10 C15          4.0410    -0.0060     5.0700 cd         1 FYP       0.209400
     11 C17          6.4860    -0.8860     6.4810 ca         1 FYP      -0.082000
     12 C18          7.6360    -1.0500     7.2230 ca         1 FYP      -0.102000
     13 C19          8.8100    -0.4240     6.8290 ca         1 FYP       0.112900
     14 C20          8.8270     0.3710     5.7050 ca         1 FYP      -0.070000
     15 F21          9.9400    -0.5970     7.5490 f          1 FYP      -0.118900
     16 N09          7.1810     1.2470     2.5840 n          1 FYP      -0.125800
     17 N14          5.3130    -0.0300     4.5840 na         1 FYP       0.439000
     18 N16          3.2080     0.0060     4.0690 nc         1 FYP      -0.556000
     19 O03          2.0140     0.0000     1.3690 os         1 FYP      -0.386900
     20 O05          4.0910    -0.0010     0.5820 o          1 FYP      -0.617000
     21 O11          8.3790     2.4640     3.9190 o          1 FYP      -0.680500
     22 H1          -0.3610    -0.8850     0.5100 hc         1 FYP       0.011700
     23 H2          -0.3610     0.8840     0.5110 hc         1 FYP       0.011700
     24 H3          -0.3610     0.0010    -1.0210 hc         1 FYP       0.011700
     25 H4           1.8910    -0.8840    -0.5110 h1         1 FYP       0.007200
     26 H5           1.8910     0.8850    -0.5110 h1         1 FYP       0.007200
     27 H7           7.0270    -0.8330     2.4520 h1         1 FYP       0.060200
     28 H8           6.0370     0.0960     1.2670 h1         1 FYP       0.060200
     29 H9           3.7660    -0.0040     6.1180 h5         1 FYP       0.033100
     30 H11          5.5710    -1.3760     6.7920 ha         1 FYP       0.123000
     31 H12          7.6260    -1.6750     8.1080 ha         1 FYP       0.127000
     32 H13          9.7480     0.8560     5.4040 ha         1 FYP       0.144000
     33 H14          8.3820     2.5920     1.5220 h1         1 FYP       0.019033
     34 H15          7.0840     1.8440     0.5810 h1         1 FYP       0.019033
     35 H16          6.7070     3.1100     1.7580 h1         1 FYP       0.019033
     36 C22          7.3490     2.2650     1.5440 c3         1 FYP       0.089300
@<TRIPOS>BOND
     1     1     2 1   
     2     1    22 1   
     3     1    23 1   
     4     1    24 1   
     5     2    19 1   
     6     2    25 1   
     7     2    26 1   
     8     3     4 1   
     9     3    19 1   
    10     3    20 2   
    11     4     5 2   
    12     4    18 1   
    13     5     6 1   
    14     5    17 1   
    15     6    16 1   
    16     6    27 1   
    17     6    28 1   
    18     7     8 1   
    19     7    16 1   
    20     7    21 2   
    21     8     9 ar  
    22     8    14 ar  
    23     9    11 ar  
    24     9    17 1   
    25    10    17 1   
    26    10    18 2   
    27    10    29 1   
    28    11    12 ar  
    29    11    30 1   
    30    12    13 ar  
    31    12    31 1   
    32    13    14 ar  
    33    13    15 1   
    34    14    32 1   
    35    16    36 1   
    36    33    36 1   
    37    34    36 1   
    38    35    36 1   
@<TRIPOS>SUBSTRUCTURE
     1 FYP         1 TEMP              0 ****  ****    0 ROOT
