@<TRIPOS>MOLECULE
molecule
   36    38     1     0     0
SMALL
bcc


@<TRIPOS>ATOM
      1 C01          0.0000     0.0000     0.0000 c3         1 FYP      -0.095100
      2 C02          1.5290     0.0000     0.0000 c3         1 FYP       0.144400
      3 C04          3.3500    -0.0010     1.5450 c          1 FYP       0.594600
      4 C06          3.9130    -0.0010     2.9060 cc         1 FYP       0.284800
      5 C07          5.2340    -0.0010     3.2320 cd         1 FYP      -0.164900
      6 C08          6.4050     0.0380     2.2840 c3         1 FYP       0.163300
      7 C10          7.7380     1.4420     3.7800 c          1 FYP       0.700100
      8 C12          7.6600     0.5570     4.9450 ca         1 FYP      -0.098600
      9 C13          6.4910    -0.0980     5.3350 ca         1 FYP       0.000800
     10 C15          4.0410    -0.0060     5.0700 cd         1 FYP       0.409400
     11 C17          6.4860    -0.8860     6.4810 ca         1 FYP      -0.120000
     12 C18          7.6360    -1.0500     7.2230 ca         1 FYP      -0.134000
     13 C19          8.8100    -0.4240     6.8290 ca         1 FYP       0.130900
     14 C20          8.8270     0.3710     5.7050 ca         1 FYP      -0.105000
     15 F21          9.9400    -0.5970     7.5490 f          1 FYP      -0.128900
     16 N09          7.1810     1.2470     2.5840 n          1 FYP      -0.474800
     17 N14          5.3130    -0.0300     4.5840 na         1 FYP      -0.100000
     18 N16          3.2080     0.0060     4.0690 nc         1 FYP      -0.642000
     19 O03          2.0140     0.0000     1.3690 os         1 FYP      -0.399900
     20 O05          4.0910    -0.0010     0.5820 o          1 FYP      -0.575000
     21 O11          8.3790     2.4640     3.9190 o          1 FYP      -0.637500
     22 H1          -0.3610    -0.8850     0.5100 hc         1 FYP       0.048700
     23 H2          -0.3610     0.8840     0.5110 hc         1 FYP       0.048700
     24 H3          -0.3610     0.0010    -1.0210 hc         1 FYP       0.048700
     25 H4           1.8910    -0.8840    -0.5110 h1         1 FYP       0.047700
     26 H5           1.8910     0.8850    -0.5110 h1         1 FYP       0.047700
     27 H7           7.0270    -0.8330     2.4520 h1         1 FYP       0.092700
     28 H8           6.0370     0.0960     1.2670 h1         1 FYP       0.092700
     29 H9           3.7660    -0.0040     6.1180 h5         1 FYP       0.077100
     30 H11          5.5710    -1.3760     6.7920 ha         1 FYP       0.151000
     31 H12          7.6260    -1.6750     8.1080 ha         1 FYP       0.158000
     32 H13          9.7480     0.8560     5.4040 ha         1 FYP       0.176000
     33 H14          8.3820     2.5920     1.5220 h1         1 FYP       0.051033
     34 H15          7.0840     1.8440     0.5810 h1         1 FYP       0.051033
     35 H16          6.7070     3.1100     1.7580 h1         1 FYP       0.051033
     36 C22          7.3490     2.2650     1.5440 c3         1 FYP       0.105300
@<TRIPOS>BOND
     1     1     2 1
     2     2    19 1
     3     3     4 1
     4     3    19 1
     5     3    20 2
     6     4     5 2
     7     4    18 1
     8     5     6 1
     9     6    16 1
    10     7     8 1
    11     7    16 1
    12     7    21 2
    13     8     9 ar
    14     8    14 ar
    15     9    11 ar
    16     9    17 1
    17    10    17 1
    18    10    18 2
    19    11    12 ar
    20    12    13 ar
    21    13    14 ar
    22    13    15 1
    23    36    16 1
    24     1    22 1
    25     1    23 1
    26     1    24 1
    27     2    25 1
    28     2    26 1
    29     6    27 1
    30     6    28 1
    31    10    29 1
    32    11    30 1
    33    12    31 1
    34    14    32 1
    35    36    33 1
    36    36    34 1
    37    36    35 1
    38    17     5 1
@<TRIPOS>SUBSTRUCTURE
     1 FYP         1 TEMP              0 ****  ****    0 ROOT
