@<TRIPOS>MOLECULE
FYU
   14    14     1     0     0
SMALL
bcc


@<TRIPOS>ATOM
      1 N1           0.0000     0.0000     0.0000 ns         1 FYU       0.037900
      2 N3          -0.1090    -0.0050     2.3490 ns         1 FYU      -0.127500
      3 C4           1.2370    -0.0120     2.4500 c          1 FYU       0.622700
      4 C5           2.0340     0.0000     1.2090 cc         1 FYU      -0.395400
      5 C6           1.3560     0.0000     0.0000 cd         1 FYU      -0.062400
      6 O4           1.7800    -0.0160     3.5370 o          1 FYU      -0.602500
      7 C2          -0.7020    -0.0010     1.1440 c          1 FYU       0.570500
      8 O2          -1.9170     0.0040     1.0880 o          1 FYU      -0.695500
      9 CM5          3.4950    -0.0050     1.2530 c          1 FYU       0.676100
     10 O3           4.0710    -0.0200     2.3220 o          1 FYU      -0.515100
     11 H1          -0.6690    -0.0090     3.1780 hn         1 FYU       0.210500
     12 H3           1.9030     0.0050    -0.9350 h4         1 FYU       0.131000
     13 H4           4.0640     0.0060     0.3310 h4         1 FYU      -0.042800
     14 H5          -0.4890     0.0020    -0.8730 hn         1 FYU       0.190500
@<TRIPOS>BOND
     1     1     5 1   
     2     1     7 1   
     3     1    14 1   
     4     2     3 1   
     5     2     7 1   
     6     2    11 1   
     7     3     4 1   
     8     3     6 2   
     9     4     5 2   
    10     4     9 1   
    11     5    12 1   
    12     7     8 2   
    13     9    10 2   
    14     9    13 1   
@<TRIPOS>SUBSTRUCTURE
     1 FYU         1 TEMP              0 ****  ****    0 ROOT
