@<TRIPOS>MOLECULE
molecule
   14    14     1     0     0
SMALL
bcc


@<TRIPOS>ATOM
      1 N1           0.0000     0.0000     0.0000 ns         1 FYU      -0.441100
      2 N3          -0.1090    -0.0050     2.3490 ns         1 FYU      -0.560500
      3 C4           1.2370    -0.0120     2.4500 c          1 FYU       0.707700
      4 C5           2.0340     0.0000     1.2090 cc         1 FYU      -0.375400
      5 C6           1.3560     0.0000     0.0000 cd         1 FYU       0.072600
      6 O4           1.7800    -0.0160     3.5370 o          1 FYU      -0.566500
      7 C2          -0.7020    -0.0010     1.1440 c          1 FYU       0.806500
      8 O2          -1.9170     0.0040     1.0880 o          1 FYU      -0.644500
      9 CM5          3.4950    -0.0050     1.2530 c          1 FYU       0.586100
     10 O3           4.0710    -0.0200     2.3220 o          1 FYU      -0.481100
     11 H1          -0.6690    -0.0090     3.1780 hn         1 FYU       0.369500
     12 H3           1.9030     0.0050    -0.9350 h4         1 FYU       0.167000
     13 H4           4.0640     0.0060     0.3310 h4         1 FYU      -0.003800
     14 H5          -0.4890     0.0020    -0.8730 hn         1 FYU       0.361500
@<TRIPOS>BOND
     1     9    10 2
     2     9     4 1
     3     6     3 2
     4     4     3 1
     5     4     5 2
     6     3     2 1
     7     5     1 1
     8     2     7 1
     9     1     7 1
    10     7     8 2
    11     2    11 1
    12     5    12 1
    13     9    13 1
    14     1    14 1
@<TRIPOS>SUBSTRUCTURE
     1 FYU         1 TEMP              0 ****  ****    0 ROOT
