@<TRIPOS>MOLECULE
molecule
   23    25     1     0     0
SMALL
bcc


@<TRIPOS>ATOM
      1 C14          0.0000     0.0000     0.0000 ca         1 FYV       0.421200
      2 C15          1.3780     0.0000     0.0000 ca         1 FYV      -0.244800
      3 N13         -0.6780     0.0010     1.1330 nb         1 FYV      -0.694000
      4 C12         -0.0780     0.0010     2.3090 ca         1 FYV       0.421200
      5 C11          1.2960     0.0010     2.4020 ca         1 FYV      -0.244800
      6 C10          2.0570     0.0000     1.2250 ca         1 FYV       0.019200
      7 C9           3.5320     0.0000     1.2750 cc         1 FYV      -0.089300
      8 N5           4.3130    -0.0960     2.3980 na         1 FYV       0.199200
      9 N4           4.0130    -0.2140     3.7590 nc         1 FYV      -0.485800
     10 C3           4.9690    -0.2880     4.6480 cd         1 FYV       0.410200
     11 C2           6.3140    -0.2510     4.2610 cd         1 FYV      -0.282300
     12 C8           4.3920     0.0900     0.2010 cd         1 FYV       0.041600
     13 N7           5.6380     0.0570     0.6600 nd         1 FYV      -0.285600
     14 C6           5.6190    -0.0550     1.9840 cc         1 FYV      -0.084300
     15 C1           6.6440    -0.1360     2.9440 cc         1 FYV      -0.013000
     16 H1          -0.5340    -0.0000    -0.9420 h4         1 FYV       0.024100
     17 H2           1.9270    -0.0010    -0.9330 ha         1 FYV       0.150000
     18 H3          -0.6750     0.0020     3.2130 h4         1 FYV       0.024100
     19 H4           1.7820     0.0020     3.3710 ha         1 FYV       0.150000
     20 H5           4.7170    -0.3800     5.6970 h4         1 FYV       0.052100
     21 H6           7.0940    -0.3140     5.0100 ha         1 FYV       0.152000
     22 H7           4.1020     0.1740    -0.8390 h4         1 FYV       0.192000
     23 H8           7.6840    -0.1060     2.6400 ha         1 FYV       0.167000
@<TRIPOS>BOND
     1     1     2 ar
     2     1     3 ar
     3     2     6 ar
     4     3     4 ar
     5    12     7 2
     6    12    13 1
     7     6     7 1
     8     6     5 ar
     9     7     8 1
    10     4     5 ar
    11    13    14 2
    12     8    14 1
    13     8     9 1
    14    14    15 1
    15     9    10 2
    16    15    11 2
    17    10    11 1
    18     1    16 1
    19     2    17 1
    20     4    18 1
    21     5    19 1
    22    10    20 1
    23    11    21 1
    24    12    22 1
    25    15    23 1
@<TRIPOS>SUBSTRUCTURE
     1 FYV         1 TEMP              0 ****  ****    0 ROOT
