@<TRIPOS>MOLECULE
FYW
   50    53     1     0     0
SMALL
bcc


@<TRIPOS>ATOM
      1 C2           0.0000     0.0000     0.0000 c3         1 FYW       0.755700
      2 C41        -14.0560    -2.8850    -0.2630 c3         1 FYW       0.185100
      3 C43        -14.2650    -1.4670     0.3080 c3         1 FYW      -0.049400
      4 C46        -12.9240    -0.7390     0.0770 c3         1 FYW       0.129800
      5 C11         -4.5700    -1.6320    -0.9450 ca         1 FYW      -0.112400
      6 C12         -4.0380    -0.5220    -0.3030 ca         1 FYW      -0.074000
      7 C14         -2.6690    -0.3660    -0.2130 ca         1 FYW      -0.138000
      8 C18         -6.7540    -0.7090    -1.1530 c          1 FYW       0.594700
      9 C20         -8.2210    -0.8650    -1.1310 ca         1 FYW      -0.315900
     10 C21         -8.7950    -2.1310    -0.9930 ca         1 FYW       0.454200
     11 C24        -10.9280    -1.2530    -1.0820 ca         1 FYW       0.524200
     12 C25        -10.4320     0.0550    -1.2210 cp         1 FYW      -0.178300
     13 C26         -9.0560     0.2540    -1.2460 ca         1 FYW       0.034000
     14 C28        -11.3610     1.2050    -1.3390 cp         1 FYW      -0.278600
     15 C29        -12.4180     1.1830    -2.2530 ca         1 FYW       0.453200
     16 F1           1.3980     0.0000     0.0000 f          1 FYW      -0.196967
     17 F3          -0.4670     0.0000     1.3190 f          1 FYW      -0.196967
     18 F4          -0.4660     1.1430    -0.6600 f          1 FYW      -0.196967
     19 O5          -0.4770    -1.1660    -0.6750 os         1 FYW      -0.314900
     20 C6          -1.8250    -1.3190    -0.7640 ca         1 FYW       0.124100
     21 C7          -2.3560    -2.4290    -1.4050 ca         1 FYW      -0.138000
     22 C9          -3.7240    -2.5890    -1.4910 ca         1 FYW      -0.074000
     23 O19         -6.2630     0.3970    -1.2740 o          1 FYW      -0.635100
     24 N23        -10.1020    -2.2820    -0.9720 nb         1 FYW      -0.627000
     25 N31        -13.2230     2.2290    -2.3250 nb         1 FYW      -0.626500
     26 C32        -13.0400     3.2800    -1.5500 ca         1 FYW       0.628900
     27 N34        -12.0560     3.3420    -0.6760 nb         1 FYW      -0.626500
     28 C35        -11.2090     2.3370    -0.5330 ca         1 FYW       0.453200
     29 N37        -12.2950    -1.4650    -1.0550 nh         1 FYW      -0.460300
     30 C38        -12.6050    -2.8940    -0.7910 c3         1 FYW       0.116800
     31 O49        -14.9730    -3.1310    -1.3290 oh         1 FYW      -0.570800
     32 H1         -14.1730    -3.6240     0.5200 h1         1 FYW       0.003700
     33 H3         -15.0620    -0.9630    -0.2250 hc         1 FYW       0.033700
     34 H4         -13.0990     0.2960    -0.1910 h1         1 FYW       0.026700
     35 H5         -12.3020    -0.8080     0.9610 h1         1 FYW       0.026700
     36 H6          -4.6980     0.2230     0.1250 ha         1 FYW       0.126000
     37 H7          -2.2540     0.5000     0.2880 ha         1 FYW       0.126000
     38 H8          -8.1550    -3.0000    -0.9000 h4         1 FYW      -0.024900
     39 H9          -8.6410     1.2490    -1.3520 ha         1 FYW       0.138000
     40 H10        -12.5750     0.3230    -2.8920 h4         1 FYW       0.000100
     41 H11         -1.6960    -3.1740    -1.8330 ha         1 FYW       0.126000
     42 H12         -4.1380    -3.4560    -1.9920 ha         1 FYW       0.126000
     43 H14        -13.7170     4.1210    -1.6380 h5         1 FYW       0.001100
     44 H15        -10.4020     2.3950     0.1870 h4         1 FYW       0.000100
     45 H16        -11.9340    -3.2920    -0.0400 h1         1 FYW       0.042200
     46 H17        -12.5420    -3.4680    -1.7070 h1         1 FYW       0.042200
     47 H18        -15.4820    -3.9010    -1.1350 ho         1 FYW       0.387000
     48 N16         -5.9590    -1.7900    -1.0370 ns         1 FYW      -0.032100
     49 H2         -14.4860    -1.5180     1.3670 hc         1 FYW       0.033700
     50 H13         -6.3600    -2.7070    -1.0190 hn         1 FYW       0.172500
@<TRIPOS>BOND
     1     1    16 1   
     2     1    17 1   
     3     1    18 1   
     4     1    19 1   
     5     2     3 1   
     6     2    30 1   
     7     2    31 1   
     8     2    32 1   
     9     3     4 1   
    10     3    33 1   
    11     3    49 1   
    12     4    29 1   
    13     4    34 1   
    14     4    35 1   
    15     5     6 ar  
    16     5    22 ar  
    17     5    48 1   
    18     6     7 ar  
    19     6    36 1   
    20     7    20 ar  
    21     7    37 1   
    22     8     9 1   
    23     8    23 2   
    24     8    48 1   
    25     9    10 ar  
    26     9    13 ar  
    27    10    24 ar  
    28    10    38 1   
    29    11    12 ar  
    30    11    24 ar  
    31    11    29 1   
    32    12    13 ar  
    33    12    14 1   
    34    13    39 1   
    35    14    15 ar  
    36    14    28 ar  
    37    15    25 ar  
    38    15    40 1   
    39    19    20 1   
    40    20    21 ar  
    41    21    22 ar  
    42    21    41 1   
    43    22    42 1   
    44    25    26 ar  
    45    26    27 ar  
    46    26    43 1   
    47    27    28 ar  
    48    28    44 1   
    49    29    30 1   
    50    30    45 1   
    51    30    46 1   
    52    31    47 1   
    53    48    50 1   
@<TRIPOS>SUBSTRUCTURE
     1 FYW         1 TEMP              0 ****  ****    0 ROOT
