@<TRIPOS>MOLECULE
molecule
   50    53     1     0     0
SMALL
bcc


@<TRIPOS>ATOM
      1 C2           0.0000     0.0000     0.0000 c3         1 FYW       0.795700
      2 C41        -14.0560    -2.8850    -0.2630 c3         1 FYW       0.136100
      3 C43        -14.2650    -1.4670     0.3080 c3         1 FYW      -0.099400
      4 C46        -12.9240    -0.7390     0.0770 c3         1 FYW       0.149800
      5 C11         -4.5700    -1.6320    -0.9450 ca         1 FYW       0.037600
      6 C12         -4.0380    -0.5220    -0.3030 ca         1 FYW      -0.110500
      7 C14         -2.6690    -0.3660    -0.2130 ca         1 FYW      -0.150000
      8 C18         -6.7540    -0.7090    -1.1530 c          1 FYW       0.682700
      9 C20         -8.2210    -0.8650    -1.1310 ca         1 FYW      -0.305900
     10 C21         -8.7950    -2.1310    -0.9930 ca         1 FYW       0.474200
     11 C24        -10.9280    -1.2530    -1.0820 ca         1 FYW       0.640200
     12 C25        -10.4320     0.0550    -1.2210 cp         1 FYW      -0.183300
     13 C26         -9.0560     0.2540    -1.2460 ca         1 FYW      -0.002000
     14 C28        -11.3610     1.2050    -1.3390 cp         1 FYW      -0.296600
     15 C29        -12.4180     1.1830    -2.2530 ca         1 FYW       0.473200
     16 F1           1.3980     0.0000     0.0000 f          1 FYW      -0.204633
     17 F3          -0.4670     0.0000     1.3190 f          1 FYW      -0.204633
     18 F4          -0.4660     1.1430    -0.6600 f          1 FYW      -0.204633
     19 O5          -0.4770    -1.1660    -0.6750 os         1 FYW      -0.340900
     20 C6          -1.8250    -1.3190    -0.7640 ca         1 FYW       0.108100
     21 C7          -2.3560    -2.4290    -1.4050 ca         1 FYW      -0.150000
     22 C9          -3.7240    -2.5890    -1.4910 ca         1 FYW      -0.110500
     23 O19         -6.2630     0.3970    -1.2740 o          1 FYW      -0.592100
     24 N23        -10.1020    -2.2820    -0.9720 nb         1 FYW      -0.741000
     25 N31        -13.2230     2.2290    -2.3250 nb         1 FYW      -0.736000
     26 C32        -13.0400     3.2800    -1.5500 ca         1 FYW       0.677900
     27 N34        -12.0560     3.3420    -0.6760 nb         1 FYW      -0.736000
     28 C35        -11.2090     2.3370    -0.5330 ca         1 FYW       0.473200
     29 N37        -12.2950    -1.4650    -1.0550 nh         1 FYW      -0.668300
     30 C38        -12.6050    -2.8940    -0.7910 c3         1 FYW       0.142800
     31 O49        -14.9730    -3.1310    -1.3290 oh         1 FYW      -0.589800
     32 H1         -14.1730    -3.6240     0.5200 h1         1 FYW       0.039700
     33 H3         -15.0620    -0.9630    -0.2250 hc         1 FYW       0.066200
     34 H4         -13.0990     0.2960    -0.1910 h1         1 FYW       0.055700
     35 H5         -12.3020    -0.8080     0.9610 h1         1 FYW       0.055700
     36 H6          -4.6980     0.2230     0.1250 ha         1 FYW       0.153500
     37 H7          -2.2540     0.5000     0.2880 ha         1 FYW       0.152500
     38 H8          -8.1550    -3.0000    -0.9000 h4         1 FYW       0.018100
     39 H9          -8.6410     1.2490    -1.3520 ha         1 FYW       0.171000
     40 H10        -12.5750     0.3230    -2.8920 h4         1 FYW       0.044600
     41 H11         -1.6960    -3.1740    -1.8330 ha         1 FYW       0.152500
     42 H12         -4.1380    -3.4560    -1.9920 ha         1 FYW       0.153500
     43 H14        -13.7170     4.1210    -1.6380 h5         1 FYW       0.062100
     44 H15        -10.4020     2.3950     0.1870 h4         1 FYW       0.044600
     45 H16        -11.9340    -3.2920    -0.0400 h1         1 FYW       0.073200
     46 H17        -12.5420    -3.4680    -1.7070 h1         1 FYW       0.073200
     47 H18        -15.4820    -3.9010    -1.1350 ho         1 FYW       0.401000
     48 N16         -5.9590    -1.7900    -1.0370 ns         1 FYW      -0.474100
     49 H2         -14.4860    -1.5180     1.3670 hc         1 FYW       0.066200
     50 H13         -6.3600    -2.7070    -1.0190 hn         1 FYW       0.324500
@<TRIPOS>BOND
     1    18     1 1
     2    19     1 1
     3    19    20 1
     4     1    17 1
     5     1    16 1
     6    20    21 ar
     7    20     7 ar
     8    21    22 ar
     9    22     5 ar
    10     7     6 ar
    11     5     6 ar
    12     5    48 1
    13    23     8 2
    14    48     8 1
    15     8     9 1
    16     9    10 ar
    17     9    13 ar
    18    10    24 ar
    19    13    12 ar
    20    24    11 ar
    21    11    12 ar
    22    11    29 1
    23    12    14 1
    24    30    29 1
    25    30     2 1
    26    29     4 1
    27    14    28 ar
    28    14    15 ar
    29    28    27 ar
    30    15    25 ar
    31     4     3 1
    32     2     3 1
    33     2    31 1
    34    27    26 ar
    35    25    26 ar
    36     2    32 1
    37     3    49 1
    38     3    33 1
    39     4    34 1
    40     4    35 1
    41     6    36 1
    42     7    37 1
    43    10    38 1
    44    13    39 1
    45    15    40 1
    46    21    41 1
    47    22    42 1
    48    48    50 1
    49    26    43 1
    50    28    44 1
    51    30    45 1
    52    30    46 1
    53    31    47 1
@<TRIPOS>SUBSTRUCTURE
     1 FYW         1 TEMP              0 ****  ****    0 ROOT
