@<TRIPOS>MOLECULE
FYX
   27    29     1     0     0
SMALL
bcc


@<TRIPOS>ATOM
      1 CPO          0.0000     0.0000     0.0000 ca         1 FYX      -0.196300
      2 CPR          1.3810     0.0000     0.0000 ca         1 FYX       0.378700
      3 NPS          2.0570     0.0000     1.1320 nb         1 FYX      -0.591000
      4 CPT          1.4570     0.0010     2.3060 ca         1 FYX       0.378700
      5 CPQ          0.0800     0.0060     2.3980 ca         1 FYX      -0.196300
      6 CPP         -0.6780     0.0010     1.2220 ca         1 FYX      -0.057500
      7 CPM         -2.1580     0.0010     1.2710 cc         1 FYX       0.308000
      8 NPJ         -2.9580     0.6760     0.4750 nd         1 FYX      -0.662000
      9 NPN         -2.9250    -0.6980     2.1400 na         1 FYX       0.313600
     10 NPL         -4.2590    -0.3970     1.8220 nc         1 FYX      -0.651800
     11 CPK         -4.2300     0.4420     0.8090 cd         1 FYX       0.624500
     12 CPH         -5.4190     1.0270     0.1410 ca         1 FYX      -0.106500
     13 CPG         -6.7090     0.7100     0.5670 ca         1 FYX      -0.165300
     14 CPI         -5.2750     1.9130    -0.9310 ca         1 FYX      -0.185300
     15 CPF         -6.4050     2.4400    -1.5280 ca         1 FYX       0.418200
     16 NPE         -7.6090     2.1150    -1.1060 nb         1 FYX      -0.549000
     17 CPD         -7.7950     1.2830    -0.0880 ca         1 FYX       0.502300
     18 CPB         -9.1270     0.9690     0.3350 cg         1 FYX       0.119800
     19 NPC        -10.1800     0.7310     0.6870 n1         1 FYX      -0.360800
     20 HPO         -0.2350    -0.3430    -1.0000 ha         1 FYX       0.130500
     21 HPR          2.0790    -0.4010    -0.7250 h4         1 FYX      -0.008900
     22 HPT          2.0180     0.2020     3.2110 h4         1 FYX      -0.008900
     23 HPQ         -0.0410    -0.4180     3.3870 ha         1 FYX       0.130500
     24 HPN         -2.4410    -1.4640     2.5640 hn         1 FYX       0.164700
     25 HPG         -6.8070     0.4560     1.6160 ha         1 FYX       0.139000
     26 HPI         -4.2490     1.8610    -1.2760 ha         1 FYX       0.145000
     27 HPF         -6.3350     2.8340    -2.5340 h4         1 FYX      -0.012900
@<TRIPOS>BOND
     1     1     2 ar  
     2     1     6 ar  
     3     1    20 1   
     4     2     3 ar  
     5     2    21 1   
     6     3     4 ar  
     7     4     5 ar  
     8     4    22 1   
     9     5     6 ar  
    10     5    23 1   
    11     6     7 1   
    12     7     8 2   
    13     7     9 1   
    14     8    11 1   
    15     9    10 1   
    16     9    24 1   
    17    10    11 2   
    18    11    12 1   
    19    12    13 ar  
    20    12    14 ar  
    21    13    17 ar  
    22    13    25 1   
    23    14    15 ar  
    24    14    26 1   
    25    15    16 ar  
    26    15    27 1   
    27    16    17 ar  
    28    17    18 1   
    29    18    19 3   
@<TRIPOS>SUBSTRUCTURE
     1 FYX         1 TEMP              0 ****  ****    0 ROOT
