@<TRIPOS>MOLECULE
FYZ
   49    51     1     0     0
SMALL
bcc


@<TRIPOS>ATOM
      1 O2          0.4600    0.5490   -0.1450 oh        1 FYZ     -0.592800
      2 C2          1.8090    0.2110    0.1140 c3        1 FYZ      0.094100
      3 C3          2.0530    0.0720    1.6220 c3        1 FYZ      0.075100
      4 O3          1.5550    1.1820    2.3410 oh        1 FYZ     -0.594800
      5 C4          1.4100   -1.2200    2.1600 c3        1 FYZ      0.087100
      6 O4          1.7410   -1.4280    3.5210 oh        1 FYZ     -0.592800
      7 C5          1.9400   -2.4190    1.3580 c3        1 FYZ      0.139100
      8 O5          1.6080   -2.2370   -0.0240 os        1 FYZ     -0.444600
      9 C6          1.2680   -3.7210    1.7930 c3        1 FYZ      0.135400
     10 O6          2.1330   -4.7770    1.4080 oh        1 FYZ     -0.598800
     11 C1          2.1790   -1.0910   -0.6230 c3        1 FYZ      0.299900
     12 O1          3.5820   -1.2240   -0.5700 os        1 FYZ     -0.436600
     13 C7          4.0740   -2.3250   -1.3570 c3        1 FYZ      0.216500
     14 C8          5.5090   -2.2790   -1.3380 c1        1 FYZ     -0.126100
     15 C9          6.7070   -2.2590   -1.3320 cg        1 FYZ     -0.087000
     16 C10         8.1130   -2.2490   -1.3290 ca        1 FYZ      0.020000
     17 C11         8.8220   -2.5140   -0.1460 ca        1 FYZ     -0.103500
     18 C12        10.2130   -2.5010   -0.1440 ca        1 FYZ     -0.125000
     19 C13        10.9260   -2.2280   -1.3200 cp        1 FYZ     -0.025000
     20 C14        10.2160   -1.9660   -2.5010 ca        1 FYZ     -0.125000
     21 C15         8.8250   -1.9740   -2.5080 ca        1 FYZ     -0.103500
     22 C16        12.3870   -2.2170   -1.3160 cp        1 FYZ     -0.042000
     23 C21        13.1050   -2.7710   -2.3850 ca        1 FYZ     -0.117000
     24 C20        14.4980   -2.7600   -2.3780 ca        1 FYZ     -0.131000
     25 C19        15.1900   -2.1950   -1.3060 ca        1 FYZ     -0.125000
     26 C18        14.4830   -1.6410   -0.2400 ca        1 FYZ     -0.131000
     27 C17        13.0890   -1.6520   -0.2410 ca        1 FYZ     -0.117000
     28 H2         -0.0740   -0.2410    0.0210 ho        1 FYZ      0.411000
     29 HA          2.4070    1.0730   -0.2950 h1        1 FYZ      0.112700
     30 H3          3.1610    0.0580    1.8270 h1        1 FYZ      0.110700
     31 H1          1.7800   -1.0940   -1.6780 h2        1 FYZ      0.089700
     32 HB          0.6970    1.4160    1.9600 ho        1 FYZ      0.417000
     33 H4          0.2890   -1.1540    2.0640 h1        1 FYZ      0.038700
     34 HC          1.7110   -0.5600    3.9490 ho        1 FYZ      0.424000
     35 H5          3.0570   -2.5000    1.4690 h1        1 FYZ      0.093700
     36 H61C        1.1410   -3.7080    2.9090 h1        1 FYZ      0.046200
     37 H62C        0.2710   -3.8340    1.2910 h1        1 FYZ      0.046200
     38 H6          1.7040   -5.5950    1.6830 ho        1 FYZ      0.403000
     39 H71C        3.6880   -2.2280   -2.4110 h1        1 FYZ      0.065200
     40 H72C        3.6960   -3.2850   -0.9020 h1        1 FYZ      0.065200
     41 H11         8.2710   -2.7320    0.7820 ha        1 FYZ      0.141500
     42 H15         8.2780   -1.7620   -3.4390 ha        1 FYZ      0.141500
     43 H12        10.7590   -2.7150    0.7870 ha        1 FYZ      0.138500
     44 H14        10.7650   -1.7430   -3.4290 ha        1 FYZ      0.138500
     45 H21        12.5630   -3.2230   -3.2300 ha        1 FYZ      0.135500
     46 H17        12.5350   -1.2080    0.6000 ha        1 FYZ      0.135500
     47 H20        15.0530   -3.2000   -3.2200 ha        1 FYZ      0.133000
     48 H19        16.2890   -2.1860   -1.3030 ha        1 FYZ      0.132000
     49 H18        15.0250   -1.1920    0.6060 ha        1 FYZ      0.133000
@<TRIPOS>BOND
     1    1    2 1   
     2    1   28 1   
     3    2    3 1   
     4    2   11 1   
     5    2   29 1   
     6    3    4 1   
     7    3    5 1   
     8    3   30 1   
     9    4   32 1   
    10    5    6 1   
    11    5    7 1   
    12    5   33 1   
    13    6   34 1   
    14    7    8 1   
    15    7    9 1   
    16    7   35 1   
    17    8   11 1   
    18    9   10 1   
    19    9   36 1   
    20    9   37 1   
    21   10   38 1   
    22   11   12 1   
    23   11   31 1   
    24   12   13 1   
    25   13   14 1   
    26   13   39 1   
    27   13   40 1   
    28   14   15 3   
    29   15   16 1   
    30   16   17 ar  
    31   16   21 ar  
    32   17   18 ar  
    33   17   41 1   
    34   18   19 ar  
    35   18   43 1   
    36   19   20 ar  
    37   19   22 1   
    38   20   21 ar  
    39   20   44 1   
    40   21   42 1   
    41   22   23 ar  
    42   22   27 ar  
    43   23   24 ar  
    44   23   45 1   
    45   24   25 ar  
    46   24   47 1   
    47   25   26 ar  
    48   25   48 1   
    49   26   27 ar  
    50   26   49 1   
    51   27   46 1   
@<TRIPOS>SUBSTRUCTURE
     1 FYZ         1 TEMP              0 ****  ****    0 ROOT
