@<TRIPOS>MOLECULE
molecule
   49    51     1     0     0
SMALL
bcc


@<TRIPOS>ATOM
      1 O2           0.0000     0.0000     0.0000 oh         1 FYZ      -0.621800
      2 C2           1.4290     0.0000     0.0000 c3         1 FYZ       0.160100
      3 C3           1.9410     0.0000     1.4430 c3         1 FYZ       0.177100
      4 O3           1.4090     1.1290     2.1390 oh         1 FYZ      -0.607800
      5 C4           1.4870    -1.2890     2.1350 c3         1 FYZ       0.091100
      6 O4           2.0210    -1.3330     3.4600 oh         1 FYZ      -0.597800
      7 C5           1.9970    -2.4930     1.3380 c3         1 FYZ       0.112100
      8 O5           1.5090    -2.4160    -0.0030 os         1 FYZ      -0.411600
      9 C6           1.4970    -3.7840     1.9900 c3         1 FYZ       0.051400
     10 O6           2.0650    -4.9080     1.3150 oh         1 FYZ      -0.600800
     11 C1           1.9400    -1.2540    -0.7150 c3         1 FYZ       0.310900
     12 O1           3.3680    -1.2270    -0.7620 os         1 FYZ      -0.456600
     13 C7           3.9410    -2.2320    -1.6010 c3         1 FYZ       0.014500
     14 C8           5.4080    -2.1130    -1.5750 c1         1 FYZ      -0.004100
     15 C9           6.5770    -2.0090    -1.5370 cg         1 FYZ      -0.131000
     16 C10          7.9670    -2.1760    -2.0590 ca         1 FYZ       0.031000
     17 C11          8.4030    -2.7250    -3.1950 ca         1 FYZ      -0.107000
     18 C12          9.5990    -2.9040    -3.7130 ca         1 FYZ      -0.106500
     19 C13         10.5410    -2.3850    -2.8300 cp         1 FYZ       0.003000
     20 C14         10.3410    -2.3750    -1.4450 ca         1 FYZ      -0.106500
     21 C15          9.2140    -1.7080    -1.3200 ca         1 FYZ      -0.107000
     22 C16         12.1960    -2.3970    -3.0860 cp         1 FYZ      -0.130000
     23 C21         12.5450    -2.0310    -4.6640 ca         1 FYZ      -0.086000
     24 C20         13.6780    -1.9900    -5.0450 ca         1 FYZ      -0.110000
     25 C19         14.8900    -2.2410    -4.2280 ca         1 FYZ      -0.147000
     26 C18         14.2030    -2.5560    -2.7960 ca         1 FYZ      -0.110000
     27 C17         13.3130    -2.5940    -2.4740 ca         1 FYZ      -0.086000
     28 H2          -0.4910     0.5060    -0.6260 ho         1 FYZ       0.427000
     29 HA           1.7950     0.8810    -0.5120 h1         1 FYZ       0.056700
     30 H3           3.0230     0.0460     1.4410 h1         1 FYZ       0.064700
     31 H1           1.5410    -1.2810    -1.7220 h2         1 FYZ       0.090700
     32 HB           2.0380     1.6270     2.6350 ho         1 FYZ       0.416000
     33 H4           0.4050    -1.3150     2.1740 h1         1 FYZ       0.077700
     34 HC           1.5110    -1.9550     3.9520 ho         1 FYZ       0.400000
     35 H5           3.0800    -2.4840     1.3270 h1         1 FYZ       0.052700
     36 H61C         2.3170    -4.2040     2.5580 h1         1 FYZ       0.082700
     37 H62C         0.9540    -3.1860     2.7120 h1         1 FYZ       0.082700
     38 H6           1.9750    -5.7880     1.6440 ho         1 FYZ       0.420000
     39 H71C         4.7540    -2.7440    -1.1010 h1         1 FYZ       0.141700
     40 H72C         3.1900    -2.9990    -1.4550 h1         1 FYZ       0.141700
     41 H11          7.7830    -3.1830    -3.9570 ha         1 FYZ       0.110500
     42 H15          8.8400    -1.3960    -0.3530 ha         1 FYZ       0.110500
     43 H12          9.9080    -3.1880    -4.7120 ha         1 FYZ       0.149500
     44 H14         11.0980    -1.9290    -0.8120 ha         1 FYZ       0.149500
     45 H21         11.6140    -2.1850    -5.1970 ha         1 FYZ       0.116500
     46 H17         12.9630    -2.9490    -1.5120 ha         1 FYZ       0.116500
     47 H20         13.7980    -2.0520    -6.1200 ha         1 FYZ       0.097500
     48 H19         15.9290    -2.3070    -4.5280 ha         1 FYZ       0.175000
     49 H18         15.0880    -2.7110    -2.1900 ha         1 FYZ       0.097500
@<TRIPOS>BOND
     1     1     2 1
     2     2     3 1
     3     2    11 1
     4     3     4 1
     5     3     5 1
     6     5     6 1
     7     5     7 1
     8     7     8 1
     9     7     9 1
    10     8    11 1
    11     9    10 1
    12    11    12 1
    13    12    13 1
    14    13    14 1
    15    14    15 3
    16    15    16 1
    17    16    17 ar
    18    16    21 ar
    19    17    18 ar
    20    18    19 ar
    21    19    20 ar
    22    19    22 1
    23    20    21 ar
    24    22    23 ar
    25    22    27 ar
    26    23    24 ar
    27    24    25 ar
    28    25    26 ar
    29    26    27 ar
    30     1    28 1
    31     2    29 1
    32     3    30 1
    33    11    31 1
    34     4    32 1
    35     5    33 1
    36     6    34 1
    37     7    35 1
    38     9    36 1
    39     9    37 1
    40    10    38 1
    41    13    39 1
    42    13    40 1
    43    17    41 1
    44    21    42 1
    45    18    43 1
    46    20    44 1
    47    23    45 1
    48    27    46 1
    49    24    47 1
    50    25    48 1
    51    26    49 1
@<TRIPOS>SUBSTRUCTURE
     1 FYZ         1 TEMP              0 ****  ****    0 ROOT
