@<TRIPOS>MOLECULE
FZ1
   53    57     1     0     0
SMALL
bcc


@<TRIPOS>ATOM
      1 C52          0.0000     0.0000     0.0000 c3         1 FZ1       0.244700
      2 O31          1.4290     0.0000     0.0000 os         1 FZ1      -0.308900
      3 C50          2.0470     0.0000     1.2120 ca         1 FZ1       0.127100
      4 C43          3.4320     0.0010     1.2840 ca         1 FZ1      -0.149500
      5 C4           4.0590     0.0020     2.5140 ca         1 FZ1      -0.104000
      6 C5           3.3030     0.0020     3.6790 ca         1 FZ1      -0.017400
      7 C1           1.9170     0.0020     3.6060 ca         1 FZ1      -0.104000
      8 C42          1.2900     0.0070     2.3750 ca         1 FZ1      -0.149500
      9 N6           3.9390    -0.0020     4.9250 nh         1 FZ1      -0.360000
     10 C2           5.4010    -0.0020     4.7710 c3         1 FZ1       0.135300
     11 C7           6.0560     0.0730     6.1530 c3         1 FZ1       0.144800
     12 N9           5.6150    -1.0710     6.9650 nh         1 FZ1      -0.505300
     13 C8           4.1540    -1.0710     7.1180 c3         1 FZ1       0.144800
     14 C3           3.4980    -1.1460     5.7370 c3         1 FZ1       0.135300
     15 C22          6.2410    -1.0750     8.1920 ca         1 FZ1       0.538200
     16 N23          5.7370    -0.4020     9.2150 nb         1 FZ1      -0.620000
     17 C24          6.3310    -0.3990    10.4060 cp         1 FZ1       0.561000
     18 C28          5.7110     0.3760    11.5080 cp         1 FZ1       0.305300
     19 C29          6.3140     0.3950    12.7640 ca         1 FZ1      -0.176300
     20 C30          5.7230     1.1230    13.7830 ca         1 FZ1      -0.084000
     21 C31          4.5490     1.8080    13.5120 ca         1 FZ1      -0.209300
     22 C32          4.0040     1.7460    12.2410 ca         1 FZ1       0.388200
     23 N33          4.5900     1.0500    11.2890 nb         1 FZ1      -0.533000
     24 N25          7.4500    -1.0570    10.6470 nb         1 FZ1      -0.613000
     25 C26          8.0400    -1.7690     9.6780 ca         1 FZ1       0.402600
     26 C27          7.4400    -1.8060     8.3950 ca         1 FZ1      -0.262600
     27 C37          9.2280    -2.4790     9.9000 ca         1 FZ1      -0.155300
     28 C36          9.7890    -3.1880     8.8790 ca         1 FZ1      -0.073000
     29 C35          9.2010    -3.2180     7.6180 ca         1 FZ1      -0.111000
     30 C34          8.0410    -2.5420     7.3700 ca         1 FZ1      -0.053000
     31 H1          -0.3610     0.8860     0.5080 h1         1 FZ1      -0.003300
     32 H2          -0.3610    -0.0030    -1.0210 h1         1 FZ1      -0.003300
     33 H3          -0.3610    -0.8830     0.5130 h1         1 FZ1      -0.003300
     34 H4           4.0210     0.0000     0.3750 ha         1 FZ1       0.117000
     35 H5           5.1410     0.0020     2.5700 ha         1 FZ1       0.117000
     36 H6           1.3270     0.0050     4.5140 ha         1 FZ1       0.117000
     37 H7           0.2090     0.0070     2.3170 ha         1 FZ1       0.117000
     38 H8           5.7110    -0.9140     4.2750 h1         1 FZ1       0.023700
     39 H9           5.7010     0.8560     4.1830 h1         1 FZ1       0.023700
     40 H10          5.7640     0.9950     6.6410 h1         1 FZ1       0.030950
     41 H11          7.1330     0.0420     6.0430 h1         1 FZ1       0.030950
     42 H12          3.8440    -0.1600     7.6150 h1         1 FZ1       0.030950
     43 H13          3.8540    -1.9300     7.7060 h1         1 FZ1       0.030950
     44 H14          2.4210    -1.1140     5.8480 h1         1 FZ1       0.023700
     45 H15          3.7900    -2.0680     5.2490 h1         1 FZ1       0.023700
     46 H16          7.2320    -0.1520    12.9410 ha         1 FZ1       0.133000
     47 H17          6.1690     1.1570    14.7700 ha         1 FZ1       0.109000
     48 H18          4.0610     2.3850    14.2890 ha         1 FZ1       0.111000
     49 H19          3.0880     2.2820    12.0250 h4         1 FZ1      -0.018900
     50 H20          9.6970    -2.4650    10.8760 ha         1 FZ1       0.120000
     51 H21         10.7100    -3.7330     9.0510 ha         1 FZ1       0.104000
     52 H22          9.6670    -3.7890     6.8240 ha         1 FZ1       0.106000
     53 H23          7.5910    -2.5730     6.3850 ha         1 FZ1       0.123000
@<TRIPOS>BOND
     1     1     2 1   
     2     1    31 1   
     3     1    32 1   
     4     1    33 1   
     5     2     3 1   
     6     3     4 ar  
     7     3     8 ar  
     8     4     5 ar  
     9     4    34 1   
    10     5     6 ar  
    11     5    35 1   
    12     6     7 ar  
    13     6     9 1   
    14     7     8 ar  
    15     7    36 1   
    16     8    37 1   
    17     9    10 1   
    18     9    14 1   
    19    10    11 1   
    20    10    38 1   
    21    10    39 1   
    22    11    12 1   
    23    11    40 1   
    24    11    41 1   
    25    12    13 1   
    26    12    15 1   
    27    13    14 1   
    28    13    42 1   
    29    13    43 1   
    30    14    44 1   
    31    14    45 1   
    32    15    16 ar  
    33    15    26 ar  
    34    16    17 ar  
    35    17    18 1   
    36    17    24 ar  
    37    18    19 ar  
    38    18    23 ar  
    39    19    20 ar  
    40    19    46 1   
    41    20    21 ar  
    42    20    47 1   
    43    21    22 ar  
    44    21    48 1   
    45    22    23 ar  
    46    22    49 1   
    47    24    25 ar  
    48    25    26 ar  
    49    25    27 ar  
    50    26    30 ar  
    51    27    28 ar  
    52    27    50 1   
    53    28    29 ar  
    54    28    51 1   
    55    29    30 ar  
    56    29    52 1   
    57    30    53 1   
@<TRIPOS>SUBSTRUCTURE
     1 FZ1         1 TEMP              0 ****  ****    0 ROOT
