@<TRIPOS>MOLECULE
molecule
   53    57     1     0     0
SMALL
bcc


@<TRIPOS>ATOM
      1 C52          0.0000     0.0000     0.0000 c3         1 FZ1       0.129700
      2 O31          1.4290     0.0000     0.0000 os         1 FZ1      -0.331900
      3 C50          2.0470     0.0000     1.2120 ca         1 FZ1       0.117100
      4 C43          3.4320     0.0010     1.2840 ca         1 FZ1      -0.166000
      5 C4           4.0590     0.0020     2.5140 ca         1 FZ1      -0.128500
      6 C5           3.3030     0.0020     3.6790 ca         1 FZ1       0.066600
      7 C1           1.9170     0.0020     3.6060 ca         1 FZ1      -0.128500
      8 C42          1.2900     0.0070     2.3750 ca         1 FZ1      -0.166000
      9 N6           3.9390    -0.0020     4.9250 nh         1 FZ1      -0.594000
     10 C2           5.4010    -0.0020     4.7710 c3         1 FZ1       0.162800
     11 C7           6.0560     0.0730     6.1530 c3         1 FZ1       0.166300
     12 N9           5.6150    -1.0710     6.9650 nh         1 FZ1      -0.721300
     13 C8           4.1540    -1.0710     7.1180 c3         1 FZ1       0.166300
     14 C3           3.4980    -1.1460     5.7370 c3         1 FZ1       0.162800
     15 C22          6.2410    -1.0750     8.1920 ca         1 FZ1       0.666200
     16 N23          5.7370    -0.4020     9.2150 nb         1 FZ1      -0.748000
     17 C24          6.3310    -0.3990    10.4060 cp         1 FZ1       0.657000
     18 C28          5.7110     0.3760    11.5080 cp         1 FZ1       0.374300
     19 C29          6.3140     0.3950    12.7640 ca         1 FZ1      -0.205300
     20 C30          5.7230     1.1230    13.7830 ca         1 FZ1      -0.107000
     21 C31          4.5490     1.8080    13.5120 ca         1 FZ1      -0.243300
     22 C32          4.0040     1.7460    12.2410 ca         1 FZ1       0.412200
     23 N33          4.5900     1.0500    11.2890 nb         1 FZ1      -0.651000
     24 N25          7.4500    -1.0570    10.6470 nb         1 FZ1      -0.735000
     25 C26          8.0400    -1.7690     9.6780 ca         1 FZ1       0.452600
     26 C27          7.4400    -1.8060     8.3950 ca         1 FZ1      -0.271600
     27 C37          9.2280    -2.4790     9.9000 ca         1 FZ1      -0.181300
     28 C36          9.7890    -3.1880     8.8790 ca         1 FZ1      -0.099000
     29 C35          9.2010    -3.2180     7.6180 ca         1 FZ1      -0.144000
     30 C34          8.0410    -2.5420     7.3700 ca         1 FZ1      -0.077000
     31 H1          -0.3610     0.8860     0.5080 h1         1 FZ1       0.040367
     32 H2          -0.3610    -0.0030    -1.0210 h1         1 FZ1       0.040367
     33 H3          -0.3610    -0.8830     0.5130 h1         1 FZ1       0.040367
     34 H4           4.0210     0.0000     0.3750 ha         1 FZ1       0.139500
     35 H5           5.1410     0.0020     2.5700 ha         1 FZ1       0.138500
     36 H6           1.3270     0.0050     4.5140 ha         1 FZ1       0.138500
     37 H7           0.2090     0.0070     2.3170 ha         1 FZ1       0.139500
     38 H8           5.7110    -0.9140     4.2750 h1         1 FZ1       0.050200
     39 H9           5.7010     0.8560     4.1830 h1         1 FZ1       0.050200
     40 H10          5.7640     0.9950     6.6410 h1         1 FZ1       0.062700
     41 H11          7.1330     0.0420     6.0430 h1         1 FZ1       0.062700
     42 H12          3.8440    -0.1600     7.6150 h1         1 FZ1       0.062700
     43 H13          3.8540    -1.9300     7.7060 h1         1 FZ1       0.062700
     44 H14          2.4210    -1.1140     5.8480 h1         1 FZ1       0.050200
     45 H15          3.7900    -2.0680     5.2490 h1         1 FZ1       0.050200
     46 H16          7.2320    -0.1520    12.9410 ha         1 FZ1       0.162000
     47 H17          6.1690     1.1570    14.7700 ha         1 FZ1       0.140000
     48 H18          4.0610     2.3850    14.2890 ha         1 FZ1       0.138000
     49 H19          3.0880     2.2820    12.0250 h4         1 FZ1       0.026100
     50 H20          9.6970    -2.4650    10.8760 ha         1 FZ1       0.151000
     51 H21         10.7100    -3.7330     9.0510 ha         1 FZ1       0.135000
     52 H22          9.6670    -3.7890     6.8240 ha         1 FZ1       0.134000
     53 H23          7.5910    -2.5730     6.3850 ha         1 FZ1       0.151000
@<TRIPOS>BOND
     1    22    21 ar
     2    22    23 ar
     3    21    20 ar
     4    23    18 ar
     5    20    19 ar
     6    18    19 ar
     7    18    17 1
     8    24    17 ar
     9    24    25 ar
    10    17    16 ar
    11    27    25 ar
    12    27    28 ar
    13    25    26 ar
    14    16    15 ar
    15    28    29 ar
    16    26    15 ar
    17    26    30 ar
    18    15    12 1
    19    29    30 ar
    20    12    13 1
    21    12    11 1
    22    13    14 1
    23    14     9 1
    24    11    10 1
    25    10     9 1
    26     9     6 1
    27     6     7 ar
    28     6     5 ar
    29     7     8 ar
    30     5     4 ar
    31     8     3 ar
    32     4     3 ar
    33     3     2 1
    34     2     1 1
    35     1    31 1
    36     1    32 1
    37     1    33 1
    38     4    34 1
    39     5    35 1
    40     7    36 1
    41     8    37 1
    42    10    38 1
    43    10    39 1
    44    11    40 1
    45    11    41 1
    46    13    42 1
    47    13    43 1
    48    14    44 1
    49    14    45 1
    50    19    46 1
    51    20    47 1
    52    21    48 1
    53    22    49 1
    54    27    50 1
    55    28    51 1
    56    29    52 1
    57    30    53 1
@<TRIPOS>SUBSTRUCTURE
     1 FZ1         1 TEMP              0 ****  ****    0 ROOT
