@<TRIPOS>MOLECULE
molecule
   41    45     1     0     0
SMALL
bcc


@<TRIPOS>ATOM
      1 N01          0.0000     0.0000     0.0000 nb         1 FZ8      -0.789000
      2 C02          1.3150     0.0000     0.0000 ca         1 FZ8       0.748900
      3 N03          2.0280     0.0000     1.1120 nb         1 FZ8      -0.826000
      4 C04          1.4420     0.0010     2.3050 ca         1 FZ8       0.720200
      5 N05          2.1950     0.0010     3.4630 nh         1 FZ8      -0.698300
      6 C06          1.8350    -1.1300     4.3240 c3         1 FZ8       0.170800
      7 C07          2.5810    -1.0180     5.6560 c3         1 FZ8      -0.083400
      8 C08          4.0890    -1.0120     5.3920 c3         1 FZ8      -0.076000
      9 C09          4.8290    -0.8400     6.6940 cc         1 FZ8       0.422800
     10 N10          5.0940     0.3550     7.2870 na         1 FZ8      -0.261300
     11 C11          5.7830     0.0900     8.4550 ca         1 FZ8      -0.094200
     12 C12          6.3140     0.8810     9.4640 ca         1 FZ8      -0.128000
     13 C13          6.9630     0.2880    10.5250 ca         1 FZ8      -0.113000
     14 C14          7.0890    -1.0930    10.5910 ca         1 FZ8      -0.146000
     15 C15          6.5720    -1.8870     9.6060 ca         1 FZ8      -0.070000
     16 C16          5.9090    -1.3080     8.5210 ca         1 FZ8       0.092400
     17 N17          5.2990    -1.8130     7.4180 nd         1 FZ8      -0.601100
     18 C18          4.4310     0.1480     4.4520 c3         1 FZ8      -0.083400
     19 C19          3.6310     0.0010     3.1560 c3         1 FZ8       0.170800
     20 C20          0.0350     0.0030     2.3600 ca         1 FZ8      -0.514500
     21 C21         -0.9190     0.0040     3.4000 cc         1 FZ8       0.403800
     22 N22         -2.1090     0.0050     2.8700 nd         1 FZ8      -0.499100
     23 N23         -2.0030     0.0030     1.4740 na         1 FZ8      -0.134800
     24 C24         -0.6800     0.0020     1.1450 ca         1 FZ8       0.518800
     25 H1           1.8350    -0.0010    -0.9500 h5         1 FZ8       0.063100
     26 H2           2.1120    -2.0570     3.8350 h1         1 FZ8       0.058450
     27 H3           0.7680    -1.1180     4.5080 h1         1 FZ8       0.058450
     28 H4           2.2980    -0.0960     6.1510 hc         1 FZ8       0.058450
     29 H5           2.3280    -1.8640     6.2840 hc         1 FZ8       0.058450
     30 H6           4.3770    -1.9470     4.9280 hc         1 FZ8       0.088700
     31 H7           4.7270     1.2440     7.0090 hn         1 FZ8       0.303700
     32 H8           6.2190     1.9590     9.4180 ha         1 FZ8       0.127000
     33 H9           7.3780     0.9030    11.3140 ha         1 FZ8       0.133000
     34 H10          7.6010    -1.5460    11.4310 ha         1 FZ8       0.133000
     35 H11          6.6750    -2.9630     9.6670 ha         1 FZ8       0.142000
     36 H13          5.4900     0.1290     4.2270 hc         1 FZ8       0.058450
     37 H14          4.1740     1.0860     4.9300 hc         1 FZ8       0.058450
     38 H15          3.8590     0.8300     2.4970 h1         1 FZ8       0.058450
     39 H16          3.8960    -0.9330     2.6740 h1         1 FZ8       0.058450
     40 H17         -0.6980     0.0050     4.4610 h4         1 FZ8       0.065800
     41 H12         -2.7670     0.0040     0.8280 hn         1 FZ8       0.345700
@<TRIPOS>BOND
     1     2     1 ar
     2     2     3 ar
     3     1    24 ar
     4     3     4 ar
     5     6     7 1
     6     6     5 1
     7     4     5 1
     8     4    20 ar
     9    24    20 ar
    10    24    23 1
    11     7     8 1
    12     5    19 1
    13    20    21 1
    14    23    22 1
    15    10     9 1
    16    10    11 1
    17     8     9 1
    18     8    18 1
    19    19    18 1
    20    21    22 2
    21    12    11 ar
    22    12    13 ar
    23     9    17 2
    24    11    16 ar
    25    13    14 ar
    26    17    16 1
    27    16    15 ar
    28    14    15 ar
    29     2    25 1
    30     6    26 1
    31     6    27 1
    32     7    28 1
    33     7    29 1
    34     8    30 1
    35    10    31 1
    36    12    32 1
    37    13    33 1
    38    14    34 1
    39    15    35 1
    40    18    36 1
    41    18    37 1
    42    19    38 1
    43    19    39 1
    44    21    40 1
    45    23    41 1
@<TRIPOS>SUBSTRUCTURE
     1 FZ8         1 TEMP              0 ****  ****    0 ROOT
