@<TRIPOS>MOLECULE
FZ9
   40    44     1     0     0
SMALL
bcc


@<TRIPOS>ATOM
      1 N01          0.0000     0.0000     0.0000 nb         1 FZ9      -0.644000
      2 C02          1.3150     0.0000     0.0000 ca         1 FZ9       0.670900
      3 N03          2.0270     0.0000     1.1130 nb         1 FZ9      -0.636000
      4 C04          1.4410     0.0020     2.3050 ca         1 FZ9       0.610200
      5 N05          2.1930     0.0030     3.4630 nh         1 FZ9      -0.500300
      6 C06          2.0300    -1.2610     4.2000 c3         1 FZ9       0.149800
      7 C07          3.1100    -1.3370     5.2830 c3         1 FZ9       0.034800
      8 C08          3.1360    -0.0520     6.0630 ce         1 FZ9      -0.030200
      9 C09          3.8250    -0.0300     7.3680 cc         1 FZ9      -0.109200
     10 C10          5.1330     0.5780     7.6620 ca         1 FZ9      -0.085800
     11 C11          6.0730     1.2670     6.8980 ca         1 FZ9      -0.042000
     12 C12          7.2320     1.7210     7.4880 ca         1 FZ9      -0.132000
     13 C13          7.4670     1.4930     8.8370 ca         1 FZ9      -0.084000
     14 C14          6.5460     0.8140     9.6050 ca         1 FZ9      -0.106000
     15 C15          5.3690     0.3480     9.0290 ca         1 FZ9      -0.229200
     16 N16          4.2860    -0.3470     9.5230 na         1 FZ9       0.359600
     17 C17          3.3730    -0.5620     8.5320 cd         1 FZ9      -0.263100
     18 C18          2.5700     1.0540     5.6290 c2         1 FZ9      -0.169200
     19 C19          1.8380     1.1410     4.3200 c3         1 FZ9       0.191000
     20 C20          0.0340     0.0020     2.3590 ca         1 FZ9      -0.543500
     21 C21         -0.9200     0.0030     3.3990 cc         1 FZ9       0.451800
     22 N22         -2.1100     0.0030     2.8690 nd         1 FZ9      -0.634100
     23 N23         -2.0030     0.0020     1.4720 na         1 FZ9       0.343200
     24 C24         -0.6800     0.0010     1.1450 ca         1 FZ9       0.296800
     25 H1           1.8350    -0.0010    -0.9500 h5         1 FZ9       0.001100
     26 H2           1.0510    -1.2890     4.6610 h1         1 FZ9       0.014700
     27 H3           2.8890    -2.1590     5.9520 hc         1 FZ9       0.029200
     28 H4           5.8920     1.4470     5.8460 ha         1 FZ9       0.108000
     29 H5           7.9640     2.2570     6.8960 ha         1 FZ9       0.103000
     30 H6           8.3820     1.8540     9.2910 ha         1 FZ9       0.100000
     31 H7           6.7400     0.6410    10.6570 ha         1 FZ9       0.098000
     32 H8           4.1820    -0.6450    10.4730 hn         1 FZ9       0.112700
     33 H9           2.4290    -1.0790     8.6570 h4         1 FZ9       0.141000
     34 H10          2.6350     1.9430     6.2440 ha         1 FZ9       0.114000
     35 H11          2.1090     2.0630     3.8200 h1         1 FZ9       0.023200
     36 H12         -0.6990     0.0030     4.4600 h4         1 FZ9       0.025800
     37 H13         -2.7670     0.0010     0.8260 hn         1 FZ9       0.160700
     38 H14          2.1410    -2.0950     3.5180 h1         1 FZ9       0.014700
     39 H15          4.0750    -1.4940     4.8170 hc         1 FZ9       0.029200
     40 H16          0.7710     1.1280     4.5060 h1         1 FZ9       0.023200
@<TRIPOS>BOND
     1     1     2 ar  
     2     1    24 ar  
     3     2     3 ar  
     4     2    25 1   
     5     3     4 ar  
     6     4     5 1   
     7     4    20 ar  
     8     5     6 1   
     9     5    19 1   
    10     6     7 1   
    11     6    26 1   
    12     6    38 1   
    13     7     8 1   
    14     7    27 1   
    15     7    39 1   
    16     8     9 1   
    17     8    18 2   
    18     9    10 1   
    19     9    17 2   
    20    10    11 ar  
    21    10    15 ar  
    22    11    12 ar  
    23    11    28 1   
    24    12    13 ar  
    25    12    29 1   
    26    13    14 ar  
    27    13    30 1   
    28    14    15 ar  
    29    14    31 1   
    30    15    16 1   
    31    16    17 1   
    32    16    32 1   
    33    17    33 1   
    34    18    19 1   
    35    18    34 1   
    36    19    35 1   
    37    19    40 1   
    38    20    21 1   
    39    20    24 ar  
    40    21    22 2   
    41    21    36 1   
    42    22    23 1   
    43    23    24 1   
    44    23    37 1   
@<TRIPOS>SUBSTRUCTURE
     1 FZ9         1 TEMP              0 ****  ****    0 ROOT
