@<TRIPOS>MOLECULE
molecule
   40    44     1     0     0
SMALL
bcc


@<TRIPOS>ATOM
      1 N01          0.0000     0.0000     0.0000 nb         1 FZ9      -0.774000
      2 C02          1.3150     0.0000     0.0000 ca         1 FZ9       0.732900
      3 N03          2.0270     0.0000     1.1130 nb         1 FZ9      -0.749000
      4 C04          1.4410     0.0020     2.3050 ca         1 FZ9       0.723200
      5 N05          2.1930     0.0030     3.4630 nh         1 FZ9      -0.716300
      6 C06          2.0300    -1.2610     4.2000 c3         1 FZ9       0.173800
      7 C07          3.1100    -1.3370     5.2830 c3         1 FZ9      -0.032200
      8 C08          3.1360    -0.0520     6.0630 ce         1 FZ9      -0.033200
      9 C09          3.8250    -0.0300     7.3680 cc         1 FZ9      -0.127200
     10 C10          5.1330     0.5780     7.6620 ca         1 FZ9      -0.088800
     11 C11          6.0730     1.2670     6.8980 ca         1 FZ9      -0.076000
     12 C12          7.2320     1.7210     7.4880 ca         1 FZ9      -0.157000
     13 C13          7.4670     1.4930     8.8370 ca         1 FZ9      -0.107000
     14 C14          6.5460     0.8140     9.6050 ca         1 FZ9      -0.146000
     15 C15          5.3690     0.3480     9.0290 ca         1 FZ9      -0.040200
     16 N16          4.2860    -0.3470     9.5230 na         1 FZ9      -0.180400
     17 C17          3.3730    -0.5620     8.5320 cd         1 FZ9      -0.090100
     18 C18          2.5700     1.0540     5.6290 c2         1 FZ9      -0.175200
     19 C19          1.8380     1.1410     4.3200 c3         1 FZ9       0.206000
     20 C20          0.0340     0.0020     2.3590 ca         1 FZ9      -0.536500
     21 C21         -0.9200     0.0030     3.3990 cd         1 FZ9       0.391800
     22 N22         -2.1100     0.0030     2.8690 nc         1 FZ9      -0.490100
     23 N23         -2.0030     0.0020     1.4720 na         1 FZ9      -0.137800
     24 C24         -0.6800     0.0010     1.1450 ca         1 FZ9       0.510800
     25 H1           1.8350    -0.0010    -0.9500 h5         1 FZ9       0.067100
     26 H2           1.0510    -1.2890     4.6610 h1         1 FZ9       0.042700
     27 H3           2.8890    -2.1590     5.9520 hc         1 FZ9       0.063700
     28 H4           5.8920     1.4470     5.8460 ha         1 FZ9       0.138000
     29 H5           7.9640     2.2570     6.8960 ha         1 FZ9       0.131000
     30 H6           8.3820     1.8540     9.2910 ha         1 FZ9       0.130000
     31 H7           6.7400     0.6410    10.6570 ha         1 FZ9       0.124000
     32 H8           4.1820    -0.6450    10.4730 hn         1 FZ9       0.296700
     33 H9           2.4290    -1.0790     8.6570 h4         1 FZ9       0.167000
     34 H10          2.6350     1.9430     6.2440 ha         1 FZ9       0.139000
     35 H11          2.1090     2.0630     3.8200 h1         1 FZ9       0.051700
     36 H12         -0.6990     0.0030     4.4600 h4         1 FZ9       0.066800
     37 H13         -2.7670     0.0010     0.8260 hn         1 FZ9       0.344700
     38 H14          2.1410    -2.0950     3.5180 h1         1 FZ9       0.042700
     39 H15          4.0750    -1.4940     4.8170 hc         1 FZ9       0.063700
     40 H16          0.7710     1.1280     4.5060 h1         1 FZ9       0.051700
@<TRIPOS>BOND
     1    12    13 ar
     2    12    11 ar
     3    13    14 ar
     4    11    10 ar
     5    14    15 ar
     6    10    15 ar
     7    10     9 1
     8    15    16 1
     9     7     6 1
    10     7     8 1
    11    22    21 2
    12    22    23 1
    13    21    20 1
    14     6     5 1
    15     9     8 1
    16     9    17 2
    17    16    17 1
    18     8    18 2
    19    23    24 1
    20    20    24 ar
    21    20     4 ar
    22     5     4 1
    23     5    19 1
    24    18    19 1
    25    24     1 ar
    26     4     3 ar
    27     1     2 ar
    28     3     2 ar
    29     2    25 1
    30     6    26 1
    31     7    27 1
    32    11    28 1
    33    12    29 1
    34    13    30 1
    35    14    31 1
    36    16    32 1
    37    17    33 1
    38    18    34 1
    39    19    35 1
    40    21    36 1
    41    23    37 1
    42     6    38 1
    43     7    39 1
    44    19    40 1
@<TRIPOS>SUBSTRUCTURE
     1 FZ9         1 TEMP              0 ****  ****    0 ROOT
