@<TRIPOS>MOLECULE
molecule
   44    47     1     0     0
SMALL
bcc


@<TRIPOS>ATOM
      1 N1           0.0000     0.0000     0.0000 nu         1 FZB      -0.768900
      2 N3          -2.7120     0.1940     0.2230 ns         1 FZB      -0.470100
      3 C4           3.5040    -1.3120    -0.5930 c3         1 FZB       0.174500
      4 C5           1.9750    -1.2470    -0.7280 c3         1 FZB      -0.204900
      5 C6           1.4650     0.0000     0.0000 c3         1 FZB       0.217500
      6 C7           1.9750     0.0000     1.4440 c3         1 FZB      -0.204900
      7 C8          -0.5600    -0.5410    -0.7660 ca         1 FZB       0.756200
      8 C10         -1.6470    -1.8130    -2.5630 ca         1 FZB      -0.307300
      9 C13         -4.9220    -0.5300    -0.8290 cc         1 FZB      -0.157400
     10 C15         -4.1670     0.0690     0.0220 c          1 FZB       0.716700
     11 O           -4.8750     0.3740     0.9210 o          1 FZB      -0.668500
     12 C14         -6.3430    -0.8670    -0.8430 c3         1 FZB      -0.004900
     13 C12         -3.8590    -1.4290    -2.0660 cd         1 FZB      -0.072200
     14 C16         -1.7800    -0.5270    -0.7690 ca         1 FZB      -0.221700
     15 C11         -2.5290    -1.3050    -1.8690 ca         1 FZB       0.006200
     16 C9          -0.2560    -2.0230    -2.8310 ca         1 FZB       0.499200
     17 N2           0.0960    -1.2250    -1.7100 nb         1 FZB      -0.925000
     18 C1           3.5040    -0.1500     1.4330 c3         1 FZB       0.174500
     19 C3           4.0700     0.0810    -0.9540 c3         1 FZB      -0.116900
     20 C2           4.3700     1.1170     1.1290 c3         1 FZB      -0.116900
     21 N            3.8130    -1.4840     0.8520 n3         1 FZB      -0.700600
     22 C            5.2240    -2.0340     0.8300 c3         1 FZB       0.139100
     23 H1          -0.4210     0.3850    -0.8220 hn         1 FZB       0.467800
     24 H3           3.9370    -2.0990    -1.1990 h1         1 FZB       0.051200
     25 H4           1.5930    -2.2520    -0.8660 hc         1 FZB       0.116450
     26 H5           1.7250    -0.6550    -1.5990 hc         1 FZB       0.116450
     27 H6           1.8250     0.8860    -0.5090 h1         1 FZB       0.063700
     28 H7           1.1240    -0.0090     2.1150 hc         1 FZB       0.116450
     29 H8           2.5590    -0.8970     1.6090 hc         1 FZB       0.116450
     30 H9          -2.1730    -2.4180    -3.2910 ha         1 FZB       0.064000
     31 H10         -6.9170    -0.0270    -0.4730 hc         1 FZB       0.054700
     32 H11         -6.6500    -1.0950    -1.8570 hc         1 FZB       0.054700
     33 H12         -6.5160    -1.7290    -0.2110 hc         1 FZB       0.054700
     34 H13         -4.2770    -2.0050    -2.8830 ha         1 FZB       0.148000
     35 H14          0.2740    -2.7720    -3.4060 h4         1 FZB       0.090100
     36 H15          3.6020    -0.2900     2.5030 h1         1 FZB       0.051200
     37 H16          4.9410    -0.0180    -1.5900 hc         1 FZB       0.058450
     38 H17          3.3120     0.6840    -1.4380 hc         1 FZB       0.058450
     39 H18          5.3410     1.1100     1.6080 hc         1 FZB       0.058450
     40 H19          3.8210     2.0490     1.1900 hc         1 FZB       0.058450
     41 H21          5.5840    -2.1480     1.8460 h1         1 FZB       0.039033
     42 H22          5.2280    -2.9980     0.3360 h1         1 FZB       0.039033
     43 H23          5.8700    -1.3500     0.2930 h1         1 FZB       0.039033
     44 H2          -2.3430     0.7310     0.9820 hn         1 FZB       0.342500
@<TRIPOS>BOND
     1    12     9 1
     2    13     9 2
     3    13    15 1
     4     8    15 ar
     5     8    16 ar
     6     9    10 1
     7    15    14 ar
     8    16    17 ar
     9    10    11 2
    10    10     2 1
    11    14     2 1
    12    14     7 ar
    13    17     7 ar
    14     7     1 1
    15     1     5 1
    16     6     5 1
    17     6    18 1
    18     5     4 1
    19    18    20 1
    20    18    21 1
    21    20    19 1
    22    21     3 1
    23    21    22 1
    24     4     3 1
    25    19     3 1
    26     1    23 1
    27     2    44 1
    28     3    24 1
    29     4    25 1
    30     4    26 1
    31     5    27 1
    32     6    28 1
    33     6    29 1
    34     8    30 1
    35    12    31 1
    36    12    32 1
    37    12    33 1
    38    13    34 1
    39    16    35 1
    40    18    36 1
    41    19    37 1
    42    19    38 1
    43    20    39 1
    44    20    40 1
    45    22    41 1
    46    22    42 1
    47    22    43 1
@<TRIPOS>SUBSTRUCTURE
     1 FZB         1 TEMP              0 ****  ****    0 ROOT
