@<TRIPOS>MOLECULE
FZB
   44    48     1     0     0
SMALL
bcc


@<TRIPOS>ATOM
      1 N1           0.0000     0.0000     0.0000 n7         1 FZB       0.009000
      2 N3          -2.7120     0.1940     0.2230 ns         1 FZB       0.126000
      3 C4           3.5040    -1.3120    -0.5930 c3         1 FZB      -0.086000
      4 C5           1.9750    -1.2470    -0.7280 c3         1 FZB      -0.190000
      5 C6           1.4650     0.0000     0.0000 c3         1 FZB      -0.005000
      6 C7           1.9750     0.0000     1.4440 c3         1 FZB      -0.400000
      7 C8          -0.5600    -0.5410    -0.7660 c3         1 FZB       0.174000
      8 C10         -1.6470    -1.8130    -2.5630 c2         1 FZB      -0.260000
      9 C13         -4.9220    -0.5300    -0.8290 c2         1 FZB      -0.094000
     10 C15         -4.1670     0.0690     0.0220 c2         1 FZB       0.251000
     11 O           -4.8750     0.3740     0.9210 o          1 FZB      -0.439000
     12 C14         -6.3430    -0.8670    -0.8430 c3         1 FZB      -0.028000
     13 C12         -3.8590    -1.4290    -2.0660 c2         1 FZB      -0.067000
     14 C16         -1.7800    -0.5270    -0.7690 c2         1 FZB      -0.351000
     15 C11         -2.5290    -1.3050    -1.8690 c2         1 FZB       0.054000
     16 C9          -0.2560    -2.0230    -2.8310 c2         1 FZB       0.080000
     17 N2           0.0960    -1.2250    -1.7100 n2         1 FZB      -0.328000
     18 C1           3.5040    -0.1500     1.4330 DU         1 FZB       0.039000
     19 C3           4.0700     0.0810    -0.9540 c2         1 FZB      -0.178000
     20 C2           4.3700     1.1170     1.1290 c2         1 FZB      -0.073000
     21 N            3.8130    -1.4840     0.8520 n3         1 FZB      -0.076000
     22 C            5.2240    -2.0340     0.8300 c3         1 FZB      -0.082000
     23 H1          -0.4210     0.3850    -0.8220 DU         1 FZB       0.174000
     24 H3           3.9370    -2.0990    -1.1990 h1         1 FZB       0.085000
     25 H4           1.5930    -2.2520    -0.8660 hc         1 FZB       0.113000
     26 H5           1.7250    -0.6550    -1.5990 hc         1 FZB       0.113000
     27 H6           1.8250     0.8860    -0.5090 h1         1 FZB       0.081000
     28 H7           1.1240    -0.0090     2.1150 hc         1 FZB       0.168000
     29 H8           2.5590    -0.8970     1.6090 DU         1 FZB       0.158000
     30 H9          -2.1730    -2.4180    -3.2910 ha         1 FZB       0.046000
     31 H10         -6.9170    -0.0270    -0.4730 hc         1 FZB       0.058000
     32 H11         -6.6500    -1.0950    -1.8570 hc         1 FZB       0.058000
     33 H12         -6.5160    -1.7290    -0.2110 hc         1 FZB       0.058000
     34 H13         -4.2770    -2.0050    -2.8830 ha         1 FZB       0.114000
     35 H14          0.2740    -2.7720    -3.4060 h4         1 FZB       0.175000
     36 H15          3.6020    -0.2900     2.5030 ha         1 FZB       0.034000
     37 H16          4.9410    -0.0180    -1.5900 ha         1 FZB       0.056000
     38 H17          3.3120     0.6840    -1.4380 ha         1 FZB       0.056000
     39 H18          5.3410     1.1100     1.6080 ha         1 FZB       0.072000
     40 H19          3.8210     2.0490     1.1900 ha         1 FZB       0.072000
     41 H21          5.5840    -2.1480     1.8460 h1         1 FZB       0.045000
     42 H22          5.2280    -2.9980     0.3360 h1         1 FZB       0.045000
     43 H23          5.8700    -1.3500     0.2930 h1         1 FZB       0.045000
     44 H2          -2.3430     0.7310     0.9820 hn         1 FZB       0.099000
@<TRIPOS>BOND
     1     1     5 1   
     2     1     7 1   
     3     1    23 1   
     4     2    10 1   
     5     2    14 1   
     6     2    44 1   
     7     3     4 1   
     8     3    19 1   
     9     3    21 1   
    10     3    24 1   
    11     4     5 1   
    12     4    25 1   
    13     4    26 1   
    14     5     6 1   
    15     5    27 1   
    16     6    18 1   
    17     6    28 1   
    18     6    29 1   
    19     7    14 1   
    20     7    17 1   
    21     7    23 1   
    22     8    15 1   
    23     8    16 1   
    24     8    30 1   
    25     9    10 1   
    26     9    12 1   
    27     9    13 1   
    28    10    11 1   
    29    12    31 1   
    30    12    32 1   
    31    12    33 1   
    32    13    15 1   
    33    13    34 1   
    34    14    15 1   
    35    16    17 1   
    36    16    35 1   
    37    18    20 1   
    38    18    21 1   
    39    18    29 1   
    40    18    36 1   
    41    19    37 1   
    42    19    38 1   
    43    20    39 1   
    44    20    40 1   
    45    21    22 1   
    46    22    41 1   
    47    22    42 1   
    48    22    43 1   
@<TRIPOS>SUBSTRUCTURE
     1 FZB         1 TEMP              0 ****  ****    0 ROOT
