@<TRIPOS>MOLECULE
molecule
   75    80     1     0     0
SMALL
bcc


@<TRIPOS>ATOM
      1 C15          0.0000     0.0000     0.0000 ca         1 FZE       0.451200
      2 C21         -2.3410     0.0180     3.3640 c3         1 FZE       0.250500
      3 C26         -4.3770     1.4580     3.2320 c3         1 FZE       0.150500
      4 C28         -4.8760     0.3350     2.2950 c3         1 FZE      -0.121400
      5 C05          2.5860    -0.8840    -3.4480 ca         1 FZE      -0.203600
      6 C06          3.5820     0.0660    -3.5870 ca         1 FZE       0.418200
      7 N08          3.8410     0.9270    -2.6210 nb         1 FZE      -0.684000
      8 C09          3.1670     0.9250    -1.4890 ca         1 FZE       0.415200
      9 C11          2.1470    -0.0010    -1.2710 cp         1 FZE      -0.149300
     10 C12          1.8470    -0.9240    -2.2780 ca         1 FZE      -0.086000
     11 C14          1.3890     0.0000     0.0000 cp         1 FZE      -0.177300
     12 N17         -0.6840     0.0070     1.1300 nb         1 FZE      -0.740000
     13 C18         -0.1010     0.0120     2.3160 ca         1 FZE       0.675200
     14 N19         -0.8800     0.0190     3.4680 nu         1 FZE      -0.913900
     15 C23         -2.8400     1.4560     3.1910 c3         1 FZE      -0.086400
     16 C31         -4.9390    -0.9240     3.1830 c3         1 FZE      -0.122400
     17 C34         -4.4710    -0.4480     4.5780 c3         1 FZE       0.156500
     18 N36         -4.7820     1.0060     4.5910 n7         1 FZE      -0.785200
     19 C38         -2.9420    -0.5880     4.6350 c3         1 FZE      -0.071700
     20 C40         -2.5670    -2.0690     4.7230 c3         1 FZE      -0.079400
     21 C43         -1.0530    -2.2010     4.9050 c3         1 FZE      -0.100400
     22 C46         -0.6770    -3.6810     4.9940 c3         1 FZE      -0.074700
     23 C48         -0.9870    -4.3670     3.6620 c3         1 FZE      -0.077400
     24 C51         -0.6110    -5.8470     3.7500 c3         1 FZE      -0.119400
     25 C54          0.8830    -5.9770     4.0570 c3         1 FZE       0.401600
     26 F55          1.2260    -7.3300     4.1380 f          1 FZE      -0.240300
     27 F56          1.6220    -5.3690     3.0360 f          1 FZE      -0.240300
     28 C57          1.1920    -5.2910     5.3890 c3         1 FZE      -0.119400
     29 C60          0.8160    -3.8110     5.3000 c3         1 FZE      -0.077400
     30 C63          1.2950     0.0120     2.4210 ca         1 FZE      -0.101700
     31 N64          1.9300     0.0190     3.6430 ns         1 FZE      -0.421100
     32 C66          3.2720     0.0180     3.7240 c          1 FZE       0.695700
     33 O67          3.8010     0.0250     4.8220 o          1 FZE      -0.646500
     34 C68          4.0850     0.0130     2.5690 cc         1 FZE      -0.163400
     35 C69          5.5850     0.0120     2.7060 c3         1 FZE      -0.036900
     36 C73          3.5170     0.0060     1.3360 cd         1 FZE      -0.064200
     37 C75          2.0600     0.0000     1.2430 ca         1 FZE      -0.041800
     38 H1          -0.5320    -0.0040    -0.9440 h4         1 FZE       0.030100
     39 H2          -2.6410    -0.5720     2.5060 h1         1 FZE       0.086700
     40 H3          -4.7960     2.4230     2.9780 h1         1 FZE       0.073700
     41 H4          -5.8600     0.5750     1.9110 hc         1 FZE       0.054200
     42 H5          -4.1780     0.1870     1.4790 hc         1 FZE       0.054200
     43 H6           1.4970    -1.4810    -5.1770 hc         1 FZE       0.047367
     44 H7           2.0190    -2.8160    -4.1400 hc         1 FZE       0.047367
     45 H8           3.1940    -1.9830    -5.1670 hc         1 FZE       0.047367
     46 H9           4.1600     0.1020    -4.5030 h4         1 FZE       0.025100
     47 H10          3.4100     1.6470    -0.7190 h4         1 FZE       0.030100
     48 H11          1.0610    -1.6570    -2.1430 ha         1 FZE       0.144000
     49 H12         -0.4440     0.0960     4.3650 hn         1 FZE       0.443800
     50 H13         -2.4550     2.0730     3.9940 hc         1 FZE       0.058700
     51 H14         -2.5020     1.8460     2.2390 hc         1 FZE       0.058700
     52 H15         -5.9540    -1.3000     3.2330 hc         1 FZE       0.051200
     53 H16         -4.2720    -1.6880     2.8020 hc         1 FZE       0.051200
     54 H17         -4.9660    -0.9810     5.3810 h1         1 FZE       0.073700
     55 H18         -5.7680     1.1360     4.7060 hn         1 FZE       0.348800
     56 H20         -2.5610    -0.0640     5.5030 hc         1 FZE       0.067700
     57 H21         -3.0730    -2.5200     5.5680 hc         1 FZE       0.046200
     58 H22         -0.5470    -1.7490     4.0600 hc         1 FZE       0.053200
     59 H23         -1.2480    -4.1560     5.7830 hc         1 FZE       0.050700
     60 H24         -0.4120    -3.8960     2.8730 hc         1 FZE       0.055700
     61 H25         -2.0450    -4.2770     3.4480 hc         1 FZE       0.055700
     62 H26         -0.8280    -6.3300     2.8050 hc         1 FZE       0.065450
     63 H27         -1.1830    -6.3170     4.5420 hc         1 FZE       0.065450
     64 H28          0.6160    -5.7620     6.1770 hc         1 FZE       0.065450
     65 H29          2.2490    -5.3820     5.6040 hc         1 FZE       0.065450
     66 H30          1.3880    -3.3420     4.5080 hc         1 FZE       0.055700
     67 H31          1.0340    -3.3270     6.2450 hc         1 FZE       0.055700
     68 H32          1.3850     0.0310     4.4830 hn         1 FZE       0.332500
     69 H33          6.0290    -0.4170     1.8150 hc         1 FZE       0.054700
     70 H34          5.9370     1.0290     2.8300 hc         1 FZE       0.054700
     71 H35          5.8690    -0.5760     3.5700 hc         1 FZE       0.054700
     72 H36          4.1300     0.0010     0.4430 ha         1 FZE       0.158000
     73 H19         -2.8660    -2.5720     3.8120 hc         1 FZE       0.046200
     74 H37         -0.7540    -1.6970     5.8170 hc         1 FZE       0.053200
     75 C01          2.3040    -1.8590    -4.5610 c3         1 FZE      -0.045800
@<TRIPOS>BOND
     1    18     3 1
     2    18    17 1
     3     3     4 1
     4     3    15 1
     5     4    16 1
     6    16    17 1
     7    17    19 1
     8    15     2 1
     9    19     2 1
    10    19    20 1
    11     2    14 1
    12    20    21 1
    13    14    13 1
    14    21    22 1
    15    13    12 ar
    16    13    30 ar
    17    33    32 2
    18    31    30 1
    19    31    32 1
    20    22    29 1
    21    22    23 1
    22    12     1 ar
    23    30    37 ar
    24    32    34 1
    25    29    28 1
    26    23    24 1
    27     1    11 ar
    28    37    11 ar
    29    37    36 1
    30    34    36 2
    31    34    35 1
    32    28    25 1
    33    24    25 1
    34    11     9 1
    35    25    27 1
    36    25    26 1
    37     9    10 ar
    38     9     8 ar
    39    10     5 ar
    40     8     7 ar
    41     5    75 1
    42     5     6 ar
    43     7     6 ar
    44     1    38 1
    45     2    39 1
    46     3    40 1
    47     4    41 1
    48     4    42 1
    49    75    43 1
    50    75    44 1
    51    75    45 1
    52     6    46 1
    53     8    47 1
    54    10    48 1
    55    14    49 1
    56    15    50 1
    57    15    51 1
    58    16    52 1
    59    16    53 1
    60    17    54 1
    61    18    55 1
    62    19    56 1
    63    20    57 1
    64    21    58 1
    65    22    59 1
    66    23    60 1
    67    23    61 1
    68    24    62 1
    69    24    63 1
    70    28    64 1
    71    28    65 1
    72    29    66 1
    73    29    67 1
    74    31    68 1
    75    35    69 1
    76    35    70 1
    77    35    71 1
    78    36    72 1
    79    20    73 1
    80    21    74 1
@<TRIPOS>SUBSTRUCTURE
     1 FZE         1 TEMP              0 ****  ****    0 ROOT
