@<TRIPOS>MOLECULE
molecule
   76    81     1     0     0
SMALL
bcc


@<TRIPOS>ATOM
      1 C15          0.0000     0.0000     0.0000 ca         1 FZH      -0.097000
      2 C17          1.3840     0.0000     0.0000 ca         1 FZH      -0.182000
      3 C22          4.2050     0.0010    -0.1050 c3         1 FZH       0.245500
      4 C24          4.3440    -1.4380    -0.6100 c3         1 FZH      -0.090400
      5 C05         -4.2760     0.8820     0.4450 ca         1 FZH      -0.205600
      6 C06         -4.9070    -0.0590     1.2390 ca         1 FZH       0.417200
      7 N08         -4.2110    -0.9130     1.9640 nb         1 FZH      -0.685000
      8 C09         -2.8950    -0.9130     1.9680 ca         1 FZH       0.415200
      9 C11         -2.1830     0.0050     1.1940 cp         1 FZH      -0.153300
     10 C12         -2.8930     0.9200     0.4100 ca         1 FZH      -0.086000
     11 C14         -0.7020     0.0050     1.1980 cp         1 FZH      -0.049000
     12 C19          2.0910     0.0000     1.1920 ca         1 FZH       0.168600
     13 N20          3.4890     0.0010     1.1740 nu         1 FZH      -0.825600
     14 C27          5.2240    -1.4380    -1.8710 c3         1 FZH       0.146500
     15 C29          4.6980    -0.3330    -2.8160 c3         1 FZH      -0.119400
     16 C32          5.4560     0.9430    -2.3920 c3         1 FZH      -0.119400
     17 C35          6.3700     0.4920    -1.2290 c3         1 FZH       0.150500
     18 N37          6.5780    -0.9760    -1.4640 n7         1 FZH      -0.779200
     19 C39          5.5930     0.6170     0.0910 c3         1 FZH      -0.066700
     20 C41          5.4340     2.0950     0.4540 c3         1 FZH      -0.086400
     21 C44          6.8080     2.6970     0.7530 c3         1 FZH      -0.074400
     22 C47          6.6380     4.1360     1.2440 c3         1 FZH      -0.089700
     23 C49          7.9960     4.6860     1.6720 c3         1 FZH      -0.062400
     24 C52          7.8150     6.0200     2.4000 c3         1 FZH      -0.200100
     25 S55          7.1110     7.2320     1.2440 s6         1 FZH       1.101000
     26 O56          6.7010     8.3760     1.9810 o          1 FZH      -0.614800
     27 O57          8.0040     7.3910     0.1510 o          1 FZH      -0.614800
     28 C58          5.6300     6.3540     0.6640 c3         1 FZH      -0.200100
     29 C61          6.0460     4.9840     0.1220 c3         1 FZH      -0.062400
     30 C64          1.4080     0.0000     2.4110 ca         1 FZH       0.016600
     31 N65          2.1000    -0.0010     3.6060 ns         1 FZH      -0.424100
     32 C67          1.4370    -0.0000     4.7770 c          1 FZH       0.696700
     33 O68          2.0640    -0.0010     5.8230 o          1 FZH      -0.651500
     34 C69          0.0260     0.0000     4.8130 cc         1 FZH      -0.178400
     35 C70         -0.6920     0.0000     6.1370 c3         1 FZH      -0.032900
     36 C74         -0.6860     0.0010     3.6590 cd         1 FZH      -0.061200
     37 C76          0.0040     0.0110     2.4200 ca         1 FZH      -0.066800
     38 H1          -0.5390    -0.0000    -0.9400 ha         1 FZH       0.137000
     39 H2           1.9190    -0.0040    -0.9410 ha         1 FZH       0.139000
     40 H3           3.6500     0.5850    -0.8290 h1         1 FZH       0.065700
     41 H4           4.8060    -2.0490     0.1550 hc         1 FZH       0.059200
     42 H5           3.3650    -1.8350    -0.8510 hc         1 FZH       0.059200
     43 H6          -6.0720     1.9570     0.0570 hc         1 FZH       0.046033
     44 H7          -5.1760     1.4760    -1.3910 hc         1 FZH       0.046033
     45 H8          -4.5910     2.8140    -0.3920 hc         1 FZH       0.046033
     46 H9          -5.9900    -0.0940     1.2660 h4         1 FZH       0.024100
     47 H10         -2.3590    -1.6290     2.5790 h4         1 FZH       0.032100
     48 H11         -2.3730     1.6470    -0.2020 ha         1 FZH       0.142000
     49 H12          4.0000    -0.0420     2.0330 hn         1 FZH       0.433800
     50 H13          5.2510    -2.4080    -2.3530 h1         1 FZH       0.074700
     51 H14          4.9220    -0.5800    -3.8460 hc         1 FZH       0.049700
     52 H15          3.6310    -0.2000    -2.6820 hc         1 FZH       0.049700
     53 H16          6.0510     1.3190    -3.2150 hc         1 FZH       0.051700
     54 H17          4.7600     1.7000    -2.0520 hc         1 FZH       0.051700
     55 H18          7.3060     1.0380    -1.2080 h1         1 FZH       0.076700
     56 H19          7.2170    -1.1060    -2.2240 hn         1 FZH       0.349800
     57 H21          6.1200     0.0970     0.8810 hc         1 FZH       0.073700
     58 H22          4.9810     2.6240    -0.3760 hc         1 FZH       0.049700
     59 H23          4.8010     2.1870     1.3280 hc         1 FZH       0.049700
     60 H24          7.4090     2.6920    -0.1480 hc         1 FZH       0.049200
     61 H25          7.3010     2.1100     1.5190 hc         1 FZH       0.049200
     62 H26          5.9650     4.1510     2.0930 hc         1 FZH       0.057700
     63 H27          8.6130     4.8370     0.7950 hc         1 FZH       0.062700
     64 H28          8.4760     3.9780     2.3370 hc         1 FZH       0.062700
     65 H29          7.1410     5.8860     3.2380 h1         1 FZH       0.102200
     66 H30          8.7760     6.3730     2.7520 h1         1 FZH       0.102200
     67 H31          4.9410     6.2220     1.4900 h1         1 FZH       0.102200
     68 H32          5.1560     6.9260    -0.1230 h1         1 FZH       0.102200
     69 H33          5.1770     4.4820    -0.2860 hc         1 FZH       0.062700
     70 H34          6.7880     5.1170    -0.6560 hc         1 FZH       0.062700
     71 H35          3.1010    -0.0040     3.6010 hn         1 FZH       0.330500
     72 H36         -1.7290     0.2740     5.9860 hc         1 FZH       0.051700
     73 H37         -0.6400    -0.9890     6.5760 hc         1 FZH       0.051700
     74 H38         -0.2230     0.7160     6.8020 hc         1 FZH       0.051700
     75 H39         -1.7690     0.0020     3.6840 ha         1 FZH       0.155000
     76 C01         -5.0860     1.8500    -0.3780 c3         1 FZH      -0.044800
@<TRIPOS>BOND
     1    26    25 2
     2    27    25 2
     3    25    28 1
     4    25    24 1
     5    28    29 1
     6    76     5 1
     7    24    23 1
     8    29    22 1
     9     5     6 ar
    10     5    10 ar
    11     6     7 ar
    12    23    22 1
    13    10     9 ar
    14    22    21 1
    15     7     8 ar
    16     9     8 ar
    17     9    11 1
    18    35    34 1
    19    21    20 1
    20    36    34 2
    21    36    37 1
    22    11    37 ar
    23    11     1 ar
    24    34    32 1
    25    37    30 ar
    26     1     2 ar
    27    20    19 1
    28    32    33 2
    29    32    31 1
    30    30    31 1
    31    30    12 ar
    32     2    12 ar
    33    12    13 1
    34    19    17 1
    35    19     3 1
    36    13     3 1
    37    17    16 1
    38    17    18 1
    39     3     4 1
    40    16    15 1
    41    18    14 1
    42     4    14 1
    43    15    14 1
    44     1    38 1
    45     2    39 1
    46     3    40 1
    47     4    41 1
    48     4    42 1
    49    76    43 1
    50    76    44 1
    51    76    45 1
    52     6    46 1
    53     8    47 1
    54    10    48 1
    55    13    49 1
    56    14    50 1
    57    15    51 1
    58    15    52 1
    59    16    53 1
    60    16    54 1
    61    17    55 1
    62    18    56 1
    63    19    57 1
    64    20    58 1
    65    20    59 1
    66    21    60 1
    67    21    61 1
    68    22    62 1
    69    23    63 1
    70    23    64 1
    71    24    65 1
    72    24    66 1
    73    28    67 1
    74    28    68 1
    75    29    69 1
    76    29    70 1
    77    31    71 1
    78    35    72 1
    79    35    73 1
    80    35    74 1
    81    36    75 1
@<TRIPOS>SUBSTRUCTURE
     1 FZH         1 TEMP              0 ****  ****    0 ROOT
