@<TRIPOS>MOLECULE
FZH
   76    81     1     0     0
SMALL
bcc


@<TRIPOS>ATOM
      1 C15          0.0000     0.0000     0.0000 ca         1 FZH      -0.064000
      2 C17          1.3840     0.0000     0.0000 ca         1 FZH      -0.171000
      3 C22          4.2050     0.0010    -0.1050 c3         1 FZH       0.126500
      4 C24          4.3440    -1.4380    -0.6100 c3         1 FZH      -0.044400
      5 C05         -4.2760     0.8820     0.4450 ca         1 FZH      -0.204600
      6 C06         -4.9070    -0.0590     1.2390 ca         1 FZH       0.398200
      7 N08         -4.2110    -0.9130     1.9640 nb         1 FZH      -0.574000
      8 C09         -2.8950    -0.9130     1.9680 ca         1 FZH       0.389200
      9 C11         -2.1830     0.0050     1.1940 cp         1 FZH      -0.138300
     10 C12         -2.8930     0.9200     0.4100 ca         1 FZH      -0.068000
     11 C14         -0.7020     0.0050     1.1980 cp         1 FZH      -0.044000
     12 C19          2.0910     0.0000     1.1920 ca         1 FZH       0.036600
     13 N20          3.4890     0.0010     1.1740 nu         1 FZH      -0.427600
     14 C27          5.2240    -1.4380    -1.8710 c3         1 FZH       0.126500
     15 C29          4.6980    -0.3330    -2.8160 c3         1 FZH      -0.061400
     16 C32          5.4560     0.9430    -2.3920 c3         1 FZH      -0.065400
     17 C35          6.3700     0.4920    -1.2290 c3         1 FZH       0.121500
     18 N37          6.5780    -0.9760    -1.4640 n7         1 FZH      -0.574200
     19 C39          5.5930     0.6170     0.0910 c3         1 FZH      -0.046700
     20 C41          5.4340     2.0950     0.4540 c3         1 FZH      -0.046400
     21 C44          6.8080     2.6970     0.7530 c3         1 FZH      -0.025400
     22 C47          6.6380     4.1360     1.2440 c3         1 FZH      -0.070700
     23 C49          7.9960     4.6860     1.6720 c3         1 FZH      -0.005400
     24 C52          7.8150     6.0200     2.4000 c3         1 FZH      -0.004100
     25 S55          7.1110     7.2320     1.2440 s6         1 FZH       0.790000
     26 O56          6.7010     8.3760     1.9810 o          1 FZH      -0.584300
     27 O57          8.0040     7.3910     0.1510 o          1 FZH      -0.584300
     28 C58          5.6300     6.3540     0.6640 c3         1 FZH      -0.004100
     29 C61          6.0460     4.9840     0.1220 c3         1 FZH      -0.005400
     30 C64          1.4080     0.0000     2.4110 ca         1 FZH      -0.143400
     31 N65          2.1000    -0.0010     3.6060 ns         1 FZH       0.046900
     32 C67          1.4370    -0.0000     4.7770 c          1 FZH       0.595700
     33 O68          2.0640    -0.0010     5.8230 o          1 FZH      -0.697500
     34 C69          0.0260     0.0000     4.8130 cc         1 FZH      -0.182400
     35 C70         -0.6920     0.0000     6.1370 c3         1 FZH       0.078100
     36 C74         -0.6860     0.0010     3.6590 cd         1 FZH      -0.052200
     37 C76          0.0040     0.0110     2.4200 ca         1 FZH      -0.052800
     38 H1          -0.5390    -0.0000    -0.9400 ha         1 FZH       0.108000
     39 H2           1.9190    -0.0040    -0.9410 ha         1 FZH       0.121000
     40 H3           3.6500     0.5850    -0.8290 h1         1 FZH       0.057700
     41 H4           4.8060    -2.0490     0.1550 hc         1 FZH       0.031200
     42 H5           3.3650    -1.8350    -0.8510 hc         1 FZH       0.031200
     43 H6          -6.0720     1.9570     0.0570 hc         1 FZH       0.009700
     44 H7          -5.1760     1.4760    -1.3910 hc         1 FZH       0.009700
     45 H8          -4.5910     2.8140    -0.3920 hc         1 FZH       0.009700
     46 H9          -5.9900    -0.0940     1.2660 h4         1 FZH      -0.016900
     47 H10         -2.3590    -1.6290     2.5790 h4         1 FZH      -0.006900
     48 H11         -2.3730     1.6470    -0.2020 ha         1 FZH       0.116000
     49 H12          4.0000    -0.0420     2.0330 hn         1 FZH       0.292800
     50 H13          5.2510    -2.4080    -2.3530 h1         1 FZH       0.042700
     51 H14          4.9220    -0.5800    -3.8460 hc         1 FZH       0.024200
     52 H15          3.6310    -0.2000    -2.6820 hc         1 FZH       0.024200
     53 H16          6.0510     1.3190    -3.2150 hc         1 FZH       0.027200
     54 H17          4.7600     1.7000    -2.0520 hc         1 FZH       0.027200
     55 H18          7.3060     1.0380    -1.2080 h1         1 FZH       0.048700
     56 H19          7.2170    -1.1060    -2.2240 hn         1 FZH       0.258800
     57 H21          6.1200     0.0970     0.8810 hc         1 FZH       0.049700
     58 H22          4.9810     2.6240    -0.3760 hc         1 FZH       0.026200
     59 H23          4.8010     2.1870     1.3280 hc         1 FZH       0.026200
     60 H24          7.4090     2.6920    -0.1480 hc         1 FZH       0.024200
     61 H25          7.3010     2.1100     1.5190 hc         1 FZH       0.024200
     62 H26          5.9650     4.1510     2.0930 hc         1 FZH       0.034700
     63 H27          8.6130     4.8370     0.7950 hc         1 FZH       0.032950
     64 H28          8.4760     3.9780     2.3370 hc         1 FZH       0.032950
     65 H29          7.1410     5.8860     3.2380 h1         1 FZH       0.070450
     66 H30          8.7760     6.3730     2.7520 h1         1 FZH       0.070450
     67 H31          4.9410     6.2220     1.4900 h1         1 FZH       0.070450
     68 H32          5.1560     6.9260    -0.1230 h1         1 FZH       0.070450
     69 H33          5.1770     4.4820    -0.2860 hc         1 FZH       0.032950
     70 H34          6.7880     5.1170    -0.6560 hc         1 FZH       0.032950
     71 H35          3.1010    -0.0040     3.6010 hn         1 FZH       0.170500
     72 H36         -1.7290     0.2740     5.9860 hc         1 FZH       0.014033
     73 H37         -0.6400    -0.9890     6.5760 hc         1 FZH       0.014033
     74 H38         -0.2230     0.7160     6.8020 hc         1 FZH       0.014033
     75 H39         -1.7690     0.0020     3.6840 ha         1 FZH       0.134000
     76 C01         -5.0860     1.8500    -0.3780 c3         1 FZH       0.070200
@<TRIPOS>BOND
     1     1     2 ar  
     2     1    11 ar  
     3     1    38 1   
     4     2    12 ar  
     5     2    39 1   
     6     3     4 1   
     7     3    13 1   
     8     3    19 1   
     9     3    40 1   
    10     4    14 1   
    11     4    41 1   
    12     4    42 1   
    13     5     6 ar  
    14     5    10 ar  
    15     5    76 1   
    16     6     7 ar  
    17     6    46 1   
    18     7     8 ar  
    19     8     9 ar  
    20     8    47 1   
    21     9    10 ar  
    22     9    11 1   
    23    10    48 1   
    24    11    37 ar  
    25    12    13 1   
    26    12    30 ar  
    27    13    49 1   
    28    14    15 1   
    29    14    18 1   
    30    14    50 1   
    31    15    16 1   
    32    15    51 1   
    33    15    52 1   
    34    16    17 1   
    35    16    53 1   
    36    16    54 1   
    37    17    18 1   
    38    17    19 1   
    39    17    55 1   
    40    18    56 1   
    41    19    20 1   
    42    19    57 1   
    43    20    21 1   
    44    20    58 1   
    45    20    59 1   
    46    21    22 1   
    47    21    60 1   
    48    21    61 1   
    49    22    23 1   
    50    22    29 1   
    51    22    62 1   
    52    23    24 1   
    53    23    63 1   
    54    23    64 1   
    55    24    25 1   
    56    24    65 1   
    57    24    66 1   
    58    25    26 2   
    59    25    27 2   
    60    25    28 1   
    61    28    29 1   
    62    28    67 1   
    63    28    68 1   
    64    29    69 1   
    65    29    70 1   
    66    30    31 1   
    67    30    37 ar  
    68    31    32 1   
    69    31    71 1   
    70    32    33 2   
    71    32    34 1   
    72    34    35 1   
    73    34    36 2   
    74    35    72 1   
    75    35    73 1   
    76    35    74 1   
    77    36    37 1   
    78    36    75 1   
    79    43    76 1   
    80    44    76 1   
    81    45    76 1   
@<TRIPOS>SUBSTRUCTURE
     1 FZH         1 TEMP              0 ****  ****    0 ROOT
