@<TRIPOS>MOLECULE
molecule
   33    35     1     0     0
SMALL
bcc


@<TRIPOS>ATOM
      1 C1           0.0000     0.0000     0.0000 ca         1 FZJ       0.716900
      2 C2           1.9960     0.0000     1.1440 ca         1 FZJ       0.730200
      3 C3           1.2900    -0.0020     2.3480 ca         1 FZJ      -0.414600
      4 C4          -0.0900    -0.0070     2.2990 ca         1 FZJ       0.483200
      5 C5           4.0810     0.1420     2.3350 cc         1 FZJ       0.040800
      6 C6           3.9020     1.3310     3.1760 c          1 FZJ       0.690700
      7 C10          4.6240     2.4870     5.3520 c3         1 FZJ       0.284800
      8 O2           3.1300     2.2120     2.8370 o          1 FZJ      -0.630500
      9 N1           1.3170     0.0000     0.0000 nb         1 FZJ      -0.801000
     10 N2          -0.6950    -0.0010     1.1200 nb         1 FZJ      -0.775000
     11 N3           3.3830     0.0050     1.1410 nu         1 FZJ      -0.754700
     12 C9           4.9620    -0.8340     2.7530 cd         1 FZJ      -0.087000
     13 C8           5.6520    -0.6640     3.9560 cd         1 FZJ      -0.144000
     14 C7           5.4660     0.4530     4.7210 cc         1 FZJ      -0.049600
     15 C11          6.0690     0.8530     6.0070 c          1 FZJ       0.708700
     16 N5           5.5750     2.0480     6.3790 ns         1 FZJ      -0.588900
     17 N4           4.5950     1.4390     4.3260 n          1 FZJ      -0.333000
     18 C13          3.2330     2.6570     5.9660 c3         1 FZJ      -0.112100
     19 C12          5.0900     3.8080     4.7370 c3         1 FZJ      -0.112100
     20 H1          -0.5270     0.0020    -0.9470 h5         1 FZJ       0.059100
     21 H2           1.8120    -0.0040     3.2980 ha         1 FZJ       0.144000
     22 H3          -0.6720    -0.0080     3.2130 h4         1 FZJ       0.027100
     23 H4           3.8810    -0.0820     0.2770 hn         1 FZJ       0.467800
     24 H5           5.1160    -1.7230     2.1540 ha         1 FZJ       0.154000
     25 H6           6.3450    -1.4290     4.2870 ha         1 FZJ       0.167000
     26 H7           5.8140     2.5490     7.2110 hn         1 FZJ       0.367500
     27 H8           2.5690     3.1080     5.2380 hc         1 FZJ       0.060200
     28 H9           2.8450     1.6880     6.2560 hc         1 FZJ       0.060200
     29 H10          3.2980     3.2950     6.8390 hc         1 FZJ       0.060200
     30 H11          4.3350     4.1750     4.0530 hc         1 FZJ       0.060200
     31 H12          6.0170     3.6490     4.2000 hc         1 FZJ       0.060200
     32 H13          5.2500     4.5360     5.5240 hc         1 FZJ       0.060200
     33 O1           6.8840     0.2040     6.6320 o          1 FZJ      -0.598500
@<TRIPOS>BOND
     1     8     6 2
     2    19     7 1
     3     9     1 ar
     4     9     2 ar
     5     1    10 ar
     6    11     2 1
     7    11     5 1
     8    18     7 1
     9     6     5 1
    10     6    17 1
    11     7    17 1
    12     7    16 1
    13     2     3 ar
    14     5    12 2
    15    17    14 1
    16    10     4 ar
    17    16    15 1
    18     3     4 ar
    19    12    13 1
    20    14    15 1
    21    14    13 2
    22    15    33 2
    23     1    20 1
    24     3    21 1
    25     4    22 1
    26    11    23 1
    27    12    24 1
    28    13    25 1
    29    16    26 1
    30    18    27 1
    31    18    28 1
    32    18    29 1
    33    19    30 1
    34    19    31 1
    35    19    32 1
@<TRIPOS>SUBSTRUCTURE
     1 FZJ         1 TEMP              0 ****  ****    0 ROOT
