@<TRIPOS>MOLECULE
FZJ
   33    35     1     0     0
SMALL
bcc


@<TRIPOS>ATOM
      1 C1           0.0000     0.0000     0.0000 ca         1 FZJ       0.671900
      2 C2           1.9960     0.0000     1.1440 ca         1 FZJ       0.533200
      3 C3           1.2900    -0.0020     2.3480 ca         1 FZJ      -0.399600
      4 C4          -0.0900    -0.0070     2.2990 ca         1 FZJ       0.481200
      5 C5           4.0810     0.1420     2.3350 cc         1 FZJ      -0.123200
      6 C6           3.9020     1.3310     3.1760 c          1 FZJ       0.606700
      7 C10          4.6240     2.4870     5.3520 c3         1 FZJ       0.049800
      8 O2           3.1300     2.2120     2.8370 o          1 FZJ      -0.684500
      9 N1           1.3170     0.0000     0.0000 nb         1 FZJ      -0.694000
     10 N2          -0.6950    -0.0010     1.1200 nb         1 FZJ      -0.681000
     11 N3           3.3830     0.0050     1.1410 nu         1 FZJ      -0.278700
     12 C9           4.9620    -0.8340     2.7530 cd         1 FZJ      -0.059000
     13 C8           5.6520    -0.6640     3.9560 cd         1 FZJ      -0.096000
     14 C7           5.4660     0.4530     4.7210 cc         1 FZJ      -0.209600
     15 C11          6.0690     0.8530     6.0070 c          1 FZJ       0.635700
     16 N5           5.5750     2.0480     6.3790 ns         1 FZJ      -0.197900
     17 N4           4.5950     1.4390     4.3260 n          1 FZJ       0.097000
     18 C13          3.2330     2.6570     5.9660 c3         1 FZJ      -0.027600
     19 C12          5.0900     3.8080     4.7370 c3         1 FZJ      -0.027600
     20 H1          -0.5270     0.0020    -0.9470 h5         1 FZJ      -0.004900
     21 H2           1.8120    -0.0040     3.2980 ha         1 FZJ       0.127000
     22 H3          -0.6720    -0.0080     3.2130 h4         1 FZJ      -0.020900
     23 H4           3.8810    -0.0820     0.2770 hn         1 FZJ       0.293800
     24 H5           5.1160    -1.7230     2.1540 ha         1 FZJ       0.120000
     25 H6           6.3450    -1.4290     4.2870 ha         1 FZJ       0.135000
     26 H7           5.8140     2.5490     7.2110 hn         1 FZJ       0.219500
     27 H8           2.5690     3.1080     5.2380 hc         1 FZJ       0.028367
     28 H9           2.8450     1.6880     6.2560 hc         1 FZJ       0.028367
     29 H10          3.2980     3.2950     6.8390 hc         1 FZJ       0.028367
     30 H11          4.3350     4.1750     4.0530 hc         1 FZJ       0.028367
     31 H12          6.0170     3.6490     4.2000 hc         1 FZJ       0.028367
     32 H13          5.2500     4.5360     5.5240 hc         1 FZJ       0.028367
     33 O1           6.8840     0.2040     6.6320 o          1 FZJ      -0.636500
@<TRIPOS>BOND
     1     1     9 ar  
     2     1    10 ar  
     3     1    20 1   
     4     2     3 ar  
     5     2     9 ar  
     6     2    11 1   
     7     3     4 ar  
     8     3    21 1   
     9     4    10 ar  
    10     4    22 1   
    11     5     6 1   
    12     5    11 1   
    13     5    12 2   
    14     6     8 2   
    15     6    17 1   
    16     7    16 1   
    17     7    17 1   
    18     7    18 1   
    19     7    19 1   
    20    11    23 1   
    21    12    13 1   
    22    12    24 1   
    23    13    14 2   
    24    13    25 1   
    25    14    15 1   
    26    14    17 1   
    27    15    16 1   
    28    15    33 2   
    29    16    26 1   
    30    18    27 1   
    31    18    28 1   
    32    18    29 1   
    33    19    30 1   
    34    19    31 1   
    35    19    32 1   
@<TRIPOS>SUBSTRUCTURE
     1 FZJ         1 TEMP              0 ****  ****    0 ROOT
