@<TRIPOS>MOLECULE
molecule
   26    28     1     0     0
SMALL
bcc


@<TRIPOS>ATOM
      1 C12          0.0000     0.0000     0.0000 ca         1 FZM      -0.131000
      2 C13          2.0810     0.0000     1.1950 ca         1 FZM      -0.131000
      3 C14          1.3840     0.0000     0.0000 ca         1 FZM      -0.132000
      4 C11         -0.6910     0.0070     1.1940 ca         1 FZM      -0.114500
      5 C10          1.3980     0.0020     2.3940 ca         1 FZM      -0.114500
      6 N01         -0.1860     0.0060     4.9180 nc         1 FZM      -0.678000
      7 C02         -0.7330     0.0090     3.6870 cc         1 FZM       0.372800
      8 N03         -2.3310     0.0150     5.1830 na         1 FZM      -0.207900
      9 C04         -1.1390     0.0080     5.8140 cd         1 FZM       0.386800
     10 C05         -2.0820     0.0140     3.8350 cd         1 FZM      -0.234600
     11 C06          0.0050     0.0080     2.4010 ca         1 FZM      -0.095500
     12 C07         -3.4410     0.0230     6.1480 c3         1 FZM       0.045300
     13 C08         -1.3480     0.0030     7.3160 c3         1 FZM      -0.095700
     14 C09         -2.8250    -0.4190     7.4920 c3         1 FZM      -0.102400
     15 H1          -0.5410    -0.0000    -0.9390 ha         1 FZM       0.128000
     16 H2           3.1640    -0.0020     1.1890 ha         1 FZM       0.128000
     17 H3           1.9240    -0.0040    -0.9390 ha         1 FZM       0.126000
     18 H4          -1.7750     0.0090     1.1930 ha         1 FZM       0.138000
     19 H5           1.9450     0.0020     3.3290 ha         1 FZM       0.138000
     20 H7          -2.8200     0.0170     3.0420 h4         1 FZM       0.174000
     21 H8          -4.1770    -0.7110     5.8410 h1         1 FZM       0.064700
     22 H9          -0.6910    -0.7190     7.7860 hc         1 FZM       0.070200
     23 H10         -2.9070    -1.4910     7.6190 hc         1 FZM       0.064700
     24 H6          -3.8100     1.0370     6.2480 h1         1 FZM       0.064700
     25 H11         -1.1870     0.9940     7.7230 hc         1 FZM       0.070200
     26 H12         -3.2810     0.1130     8.3180 hc         1 FZM       0.064700
@<TRIPOS>BOND
     1    14    12 1
     2    14    13 1
     3    12     8 1
     4    13     9 1
     5     8     9 1
     6     8    10 1
     7     9     6 2
     8    10     7 2
     9     6     7 1
    10     7    11 1
    11     5    11 ar
    12     5     2 ar
    13    11     4 ar
    14     2     3 ar
    15     4     1 ar
    16     3     1 ar
    17     1    15 1
    18     2    16 1
    19     3    17 1
    20     4    18 1
    21     5    19 1
    22    10    20 1
    23    12    21 1
    24    13    22 1
    25    14    23 1
    26    12    24 1
    27    13    25 1
    28    14    26 1
@<TRIPOS>SUBSTRUCTURE
     1 FZM         1 TEMP              0 ****  ****    0 ROOT
