@<TRIPOS>MOLECULE
FZP
   60    63     1     0     0
SMALL
bcc


@<TRIPOS>ATOM
      1 C4           0.0000     0.0000     0.0000 cc         1 FZP       0.448200
      2 C14         -7.4630     0.4240    -9.8640 ca         1 FZP       0.115900
      3 C5          -2.2010     0.0100    -0.9880 ca         1 FZP       0.719900
      4 C6          -4.2880     0.0150    -1.9640 ca         1 FZP       0.445200
      5 C11         -5.6160     0.1780    -7.8200 ca         1 FZP      -0.131300
      6 C7          -4.8660     0.0100    -0.6950 ca         1 FZP      -0.463600
      7 C8          -4.0350     0.0050     0.4080 ca         1 FZP       0.507200
      8 C9          -4.5190    -0.0170    -4.3260 c          1 FZP       0.660100
      9 C10         -4.6050     0.0450    -6.7100 c3         1 FZP       0.298700
     10 C12         -5.9500     1.4300    -8.3030 ca         1 FZP      -0.047500
     11 C13         -6.8770     1.5530    -9.3200 ca         1 FZP      -0.137500
     12 N1           1.7500     0.0000     1.3300 na         1 FZP       0.488400
     13 N2           1.3120     0.0000     0.0000 nd         1 FZP      -0.694800
     14 C3          -0.4340     0.0000     1.3360 cc         1 FZP      -0.347300
     15 N3          -0.8230     0.0050    -1.1320 nu         1 FZP      -0.332600
     16 C1           3.1450     0.0010     1.7780 c3         1 FZP       0.026600
     17 C15         -7.1230    -0.8310    -9.3830 ca         1 FZP      -0.137500
     18 C16         -6.2000    -0.9510    -8.3610 ca         1 FZP      -0.047500
     19 C17         -6.4820     0.0600    -2.9820 ca         1 FZP      -0.104400
     20 C18         -7.1040     1.2050    -2.5030 ca         1 FZP      -0.104000
     21 C19         -8.4810     1.2470    -2.3820 ca         1 FZP      -0.074000
     22 C2           0.6620    -0.0050     2.1290 cd         1 FZP      -0.245300
     23 C20         -9.2410     0.1490    -2.7360 ca         1 FZP      -0.089000
     24 C21         -8.6250    -1.0000    -3.2150 ca         1 FZP      -0.077400
     25 C22         -7.2440    -1.0420    -3.3420 ca         1 FZP      -0.115000
     26 C23        -10.6210    -1.9370    -4.1060 c          1 FZP       0.558100
     27 C24        -11.4990    -3.1300    -4.3840 c3         1 FZP      -0.097400
     28 C25        -12.8260    -2.6600    -4.9830 c3         1 FZP       0.021900
     29 N4          -2.9640     0.0150    -2.0700 nb         1 FZP      -0.662000
     30 N5          -2.7220     0.0050     0.2300 nb         1 FZP      -0.707000
     31 N6          -5.0870     0.0180    -3.1040 n          1 FZP       0.085500
     32 N7          -9.3960    -2.1100    -3.5740 ns         1 FZP      -0.040100
     33 O1          -3.3160    -0.1450    -4.4320 o          1 FZP      -0.587000
     34 O2          -5.2850     0.0910    -5.4270 os         1 FZP      -0.411900
     35 O3         -11.0190    -0.8200    -4.3610 o          1 FZP      -0.626100
     36 H1          -5.9430     0.0100    -0.5770 ha         1 FZP       0.140000
     37 H2          -4.4510     0.0020     1.4080 h4         1 FZP      -0.019900
     38 H3          -3.8930     0.8590    -6.7700 h1         1 FZP       0.016200
     39 H4          -4.0830    -0.9000    -6.8090 h1         1 FZP       0.016200
     40 H5          -5.4910     2.3150    -7.8770 ha         1 FZP       0.110000
     41 H6          -7.1400     2.5340    -9.6970 ha         1 FZP       0.119500
     42 H7          -1.4640    -0.0010     1.6720 ha         1 FZP       0.187000
     43 H8          -0.4160     0.0040    -2.0470 hn         1 FZP       0.300800
     44 H9           3.8010     0.0180     0.9160 h1         1 FZP       0.018367
     45 H10          3.3380    -0.8920     2.3600 h1         1 FZP       0.018367
     46 H11          3.3280     0.8760     2.3880 h1         1 FZP       0.018367
     47 H12         -7.5810    -1.7160    -9.8070 ha         1 FZP       0.119500
     48 H13         -5.9340    -1.9310    -7.9850 ha         1 FZP       0.110000
     49 H14         -6.5100     2.0670    -2.2230 ha         1 FZP       0.116000
     50 H15         -8.9640     2.1410    -2.0080 ha         1 FZP       0.110000
     51 H16          0.6650    -0.0060     3.2120 h4         1 FZP       0.141000
     52 H17        -10.3190     0.1840    -2.6380 ha         1 FZP       0.142000
     53 H18         -6.7610    -1.9370    -3.7160 ha         1 FZP       0.116000
     54 H19        -11.6880    -3.6630    -3.4600 hc         1 FZP       0.025700
     55 H20        -11.0000    -3.7890    -5.0850 hc         1 FZP       0.025700
     56 H21        -13.3250    -2.0020    -4.2820 hc         1 FZP       0.010700
     57 H22        -13.4550    -3.5190    -5.1840 hc         1 FZP       0.010700
     58 H23        -12.6360    -2.1270    -5.9070 hc         1 FZP       0.010700
     59 H24         -9.0330    -3.0340    -3.4440 hn         1 FZP       0.169500
     60 F1          -8.3690     0.5440   -10.8590 f          1 FZP      -0.127900
@<TRIPOS>BOND
     1     1    13 2   
     2     1    14 1   
     3     1    15 1   
     4     2    11 ar  
     5     2    17 ar  
     6     2    60 1   
     7     3    15 1   
     8     3    29 ar  
     9     3    30 ar  
    10     4     6 ar  
    11     4    29 ar  
    12     4    31 1   
    13     5     9 1   
    14     5    10 ar  
    15     5    18 ar  
    16     6     7 ar  
    17     6    36 1   
    18     7    30 ar  
    19     7    37 1   
    20     8    31 1   
    21     8    33 2   
    22     8    34 1   
    23     9    34 1   
    24     9    38 1   
    25     9    39 1   
    26    10    11 ar  
    27    10    40 1   
    28    11    41 1   
    29    12    13 1   
    30    12    16 1   
    31    12    22 1   
    32    14    22 2   
    33    14    42 1   
    34    15    43 1   
    35    16    44 1   
    36    16    45 1   
    37    16    46 1   
    38    17    18 ar  
    39    17    47 1   
    40    18    48 1   
    41    19    20 ar  
    42    19    25 ar  
    43    19    31 1   
    44    20    21 ar  
    45    20    49 1   
    46    21    23 ar  
    47    21    50 1   
    48    22    51 1   
    49    23    24 ar  
    50    23    52 1   
    51    24    25 ar  
    52    24    32 1   
    53    25    53 1   
    54    26    27 1   
    55    26    32 1   
    56    26    35 2   
    57    27    28 1   
    58    27    54 1   
    59    27    55 1   
    60    28    56 1   
    61    28    57 1   
    62    28    58 1   
    63    32    59 1   
@<TRIPOS>SUBSTRUCTURE
     1 FZP         1 TEMP              0 ****  ****    0 ROOT
