@<TRIPOS>MOLECULE
molecule
   60    63     1     0     0
SMALL
bcc


@<TRIPOS>ATOM
      1 C4           0.0000     0.0000     0.0000 cc         1 FZP       0.587200
      2 C14         -7.4630     0.4240    -9.8640 ca         1 FZP       0.146900
      3 C5          -2.2010     0.0100    -0.9880 ca         1 FZP       0.971900
      4 C6          -4.2880     0.0150    -1.9640 ca         1 FZP       0.644200
      5 C11         -5.6160     0.1780    -7.8200 ca         1 FZP      -0.116300
      6 C7          -4.8660     0.0100    -0.6950 ca         1 FZP      -0.469600
      7 C8          -4.0350     0.0050     0.4080 ca         1 FZP       0.510200
      8 C9          -4.5190    -0.0170    -4.3260 c          1 FZP       0.746100
      9 C10         -4.6050     0.0450    -6.7100 c3         1 FZP       0.215700
     10 C12         -5.9500     1.4300    -8.3030 ca         1 FZP      -0.075500
     11 C13         -6.8770     1.5530    -9.3200 ca         1 FZP      -0.172000
     12 N1           1.7500     0.0000     1.3300 na         1 FZP       0.062400
     13 N2           1.3120     0.0000     0.0000 nd         1 FZP      -0.561800
     14 C3          -0.4340     0.0000     1.3360 cc         1 FZP      -0.346300
     15 N3          -0.8230     0.0050    -1.1320 nu         1 FZP      -0.823600
     16 C1           3.1450     0.0010     1.7780 c3         1 FZP       0.069600
     17 C15         -7.1230    -0.8310    -9.3830 ca         1 FZP      -0.172000
     18 C16         -6.2000    -0.9510    -8.3610 ca         1 FZP      -0.075500
     19 C17         -6.4820     0.0600    -2.9820 ca         1 FZP       0.049600
     20 C18         -7.1040     1.2050    -2.5030 ca         1 FZP      -0.140000
     21 C19         -8.4810     1.2470    -2.3820 ca         1 FZP      -0.107000
     22 C2           0.6620    -0.0050     2.1290 cd         1 FZP      -0.115300
     23 C20         -9.2410     0.1490    -2.7360 ca         1 FZP      -0.120000
     24 C21         -8.6250    -1.0000    -3.2150 ca         1 FZP       0.066600
     25 C22         -7.2440    -1.0420    -3.3420 ca         1 FZP      -0.149000
     26 C23        -10.6210    -1.9370    -4.1060 c          1 FZP       0.657100
     27 C24        -11.4990    -3.1300    -4.3840 c3         1 FZP      -0.159400
     28 C25        -12.8260    -2.6600    -4.9830 c3         1 FZP      -0.077100
     29 N4          -2.9640     0.0150    -2.0700 nb         1 FZP      -0.784000
     30 N5          -2.7220     0.0050     0.2300 nb         1 FZP      -0.807000
     31 N6          -5.0870     0.0180    -3.1040 n          1 FZP      -0.348500
     32 N7          -9.3960    -2.1100    -3.5740 ns         1 FZP      -0.481100
     33 O1          -3.3160    -0.1450    -4.4320 o          1 FZP      -0.536000
     34 O2          -5.2850     0.0910    -5.4270 os         1 FZP      -0.424900
     35 O3         -11.0190    -0.8200    -4.3610 o          1 FZP      -0.587100
     36 H1          -5.9430     0.0100    -0.5770 ha         1 FZP       0.155000
     37 H2          -4.4510     0.0020     1.4080 h4         1 FZP       0.030100
     38 H3          -3.8930     0.8590    -6.7700 h1         1 FZP       0.059200
     39 H4          -4.0830    -0.9000    -6.8090 h1         1 FZP       0.059200
     40 H5          -5.4910     2.3150    -7.8770 ha         1 FZP       0.140500
     41 H6          -7.1400     2.5340    -9.6970 ha         1 FZP       0.147000
     42 H7          -1.4640    -0.0010     1.6720 ha         1 FZP       0.200000
     43 H8          -0.4160     0.0040    -2.0470 hn         1 FZP       0.481800
     44 H9           3.8010     0.0180     0.9160 h1         1 FZP       0.051700
     45 H10          3.3380    -0.8920     2.3600 h1         1 FZP       0.051700
     46 H11          3.3280     0.8760     2.3880 h1         1 FZP       0.051700
     47 H12         -7.5810    -1.7160    -9.8070 ha         1 FZP       0.147000
     48 H13         -5.9340    -1.9310    -7.9850 ha         1 FZP       0.140500
     49 H14         -6.5100     2.0670    -2.2230 ha         1 FZP       0.144000
     50 H15         -8.9640     2.1410    -2.0080 ha         1 FZP       0.142000
     51 H16          0.6650    -0.0060     3.2120 h4         1 FZP       0.166000
     52 H17        -10.3190     0.1840    -2.6380 ha         1 FZP       0.164000
     53 H18         -6.7610    -1.9370    -3.7160 ha         1 FZP       0.142000
     54 H19        -11.6880    -3.6630    -3.4600 hc         1 FZP       0.060200
     55 H20        -11.0000    -3.7890    -5.0850 hc         1 FZP       0.060200
     56 H21        -13.3250    -2.0020    -4.2820 hc         1 FZP       0.046367
     57 H22        -13.4550    -3.5190    -5.1840 hc         1 FZP       0.046367
     58 H23        -12.6360    -2.1270    -5.9070 hc         1 FZP       0.046367
     59 H24         -9.0330    -3.0340    -3.4440 hn         1 FZP       0.325500
     60 F1          -8.3690     0.5440   -10.8590 f          1 FZP      -0.138900
@<TRIPOS>BOND
     1    16    12 1
     2    12    13 1
     3    12    22 1
     4    13     1 2
     5    22    14 2
     6     1    14 1
     7     1    15 1
     8    35    26 2
     9    28    27 1
    10    15     3 1
    11    26    27 1
    12    26    32 1
    13    23    21 ar
    14    23    24 ar
    15    21    20 ar
    16     3    29 ar
    17     3    30 ar
    18    32    24 1
    19    24    25 ar
    20    20    19 ar
    21    29     4 ar
    22    30     7 ar
    23    25    19 ar
    24    19    31 1
    25     4    31 1
    26     4     6 ar
    27     7     6 ar
    28    31     8 1
    29     8    33 2
    30     8    34 1
    31    34     9 1
    32     9     5 1
    33    18     5 ar
    34    18    17 ar
    35     5    10 ar
    36    17     2 ar
    37    10    11 ar
    38     2    11 ar
    39     2    60 1
    40     6    36 1
    41     7    37 1
    42     9    38 1
    43     9    39 1
    44    10    40 1
    45    11    41 1
    46    14    42 1
    47    15    43 1
    48    16    44 1
    49    16    45 1
    50    16    46 1
    51    17    47 1
    52    18    48 1
    53    20    49 1
    54    21    50 1
    55    22    51 1
    56    23    52 1
    57    25    53 1
    58    27    54 1
    59    27    55 1
    60    28    56 1
    61    28    57 1
    62    28    58 1
    63    32    59 1
@<TRIPOS>SUBSTRUCTURE
     1 FZP         1 TEMP              0 ****  ****    0 ROOT
