@<TRIPOS>MOLECULE
FZS
   42    43     1     0     0
SMALL
bcc


@<TRIPOS>ATOM
      1 O1           0.0000     0.0000     0.0000 oh         1 FZS      -0.564800
      2 N            1.5520    -1.2520     2.0970 ns         1 FZS      -0.178900
      3 CA           1.9390     0.0000     1.4420 c3         1 FZS       0.044700
      4 C            1.4290     0.0000     0.0000 c3         1 FZS       0.181400
      5 CB           1.3300     1.1820     2.1990 c3         1 FZS       0.257600
      6 CAJ          0.7660    -4.5700     4.6360 cc         1 FZS      -0.126400
      7 CAL         -0.9170     2.2310     3.5350 c3         1 FZS       0.131900
      8 CAX         -0.0860     1.9450     4.7710 ce         1 FZS      -0.257800
      9 CAZ          2.0200    -3.5690     2.7490 cf         1 FZS       0.286300
     10 CBA          1.3270     1.5760     4.6190 ce         1 FZS       0.417600
     11 CBB         -0.5920    -2.5160     5.0310 cc         1 FZS       0.601300
     12 CBC          1.0070    -3.5220     3.8250 cd         1 FZS       0.352000
     13 NAM          2.6480    -4.6810     2.4940 n2         1 FZS      -0.379200
     14 NAN          0.2650    -2.4390     4.0610 nd         1 FZS      -0.640000
     15 NBI          1.9070     1.2480     3.5320 n2         1 FZS      -0.489900
     16 OAD          1.6910     1.9830     6.8970 o          1 FZS      -0.858300
     17 OAE          3.2640    -2.3410     1.1930 o          1 FZS      -0.673100
     18 OAI          3.4340     1.1560     5.8040 o          1 FZS      -0.858300
     19 OAR          3.7020    -4.6990     1.5470 os         1 FZS      -0.134300
     20 SAT         -0.4710     0.9660     2.3010 ss         1 FZS      -0.455200
     21 SAU         -0.5010    -4.1110     5.7700 ss         1 FZS      -0.398300
     22 H1          -0.3140     0.0270    -0.8890 ho         1 FZS       0.369000
     23 H2           0.6920    -1.3050     2.6060 hn         1 FZS       0.248500
     24 H3           3.0190     0.0890     1.4430 h1         1 FZS       0.078700
     25 H4           1.7900    -0.8850    -0.5110 h1         1 FZS      -0.004300
     26 H5           1.7900     0.8840    -0.5110 h1         1 FZS      -0.004300
     27 H6           1.5480     2.1020     1.6710 h2         1 FZS       0.048700
     28 H7           5.0870    -5.9150     0.6260 h1         1 FZS      -0.011300
     29 H8           3.5480    -6.6880     1.0300 h1         1 FZS      -0.011300
     30 H9           4.7160    -6.3230     2.3070 h1         1 FZS      -0.011300
     31 H13         -0.6840     3.2170     3.1540 h1         1 FZS       0.036700
     32 H14         -1.9710     2.1590     3.7740 h1         1 FZS       0.036700
     33 H16         -1.8850    -1.5350     6.3230 hn         1 FZS       0.281300
     34 H17         -1.6490    -0.7460     4.7980 hn         1 FZS       0.281300
     35 CAK         -0.6330     2.0260     5.9810 c2         1 FZS      -0.160000
     36 CAV          2.1600     1.5870     5.8500 c          1 FZS       0.886300
     37 NAC         -1.4450    -1.4990     5.4250 nv         1 FZS      -0.469500
     38 CAW          2.3220    -2.3490     1.9610 c          1 FZS       0.483800
     39 H10          1.2660    -5.5300     4.5980 h4         1 FZS       0.168000
     40 CAA          4.2990    -5.9840     1.3670 c3         1 FZS       0.251700
     41 H11         -1.6760     2.2980     6.0870 ha         1 FZS       0.120500
     42 H12         -0.0350     1.8210     6.8610 ha         1 FZS       0.120500
@<TRIPOS>BOND
     1     1     4 1   
     2     1    22 1   
     3     2     3 1   
     4     2    23 1   
     5     2    38 1   
     6     3     4 1   
     7     3     5 1   
     8     3    24 1   
     9     4    25 1   
    10     4    26 1   
    11     5    15 1   
    12     5    20 1   
    13     5    27 1   
    14     6    12 2   
    15     6    21 1   
    16     6    39 1   
    17     7     8 1   
    18     7    20 1   
    19     7    31 1   
    20     7    32 1   
    21     8    10 1   
    22     8    35 2   
    23     9    12 1   
    24     9    13 2   
    25     9    38 1   
    26    10    15 2   
    27    10    36 1   
    28    11    14 2   
    29    11    21 1   
    30    11    37 1   
    31    12    14 1   
    32    13    19 1   
    33    16    36 1   
    34    17    38 2   
    35    18    36 1   
    36    19    40 1   
    37    28    40 1   
    38    29    40 1   
    39    30    40 1   
    40    33    37 1   
    41    34    37 1   
    42    35    41 1   
    43    35    42 1   
@<TRIPOS>SUBSTRUCTURE
     1 FZS         1 TEMP              0 ****  ****    0 ROOT
