@<TRIPOS>MOLECULE
molecule
   42    43     1     0     0
SMALL
bcc


@<TRIPOS>ATOM
      1 O1           0.0000     0.0000     0.0000 oh         1 FZS      -0.587800
      2 N            1.5520    -1.2520     2.0970 ns         1 FZS      -0.539900
      3 CA           1.9390     0.0000     1.4420 c3         1 FZS       0.153700
      4 C            1.4290     0.0000     0.0000 c3         1 FZS       0.106400
      5 CB           1.3300     1.1820     2.1990 c3         1 FZS       0.246600
      6 CAJ          0.7660    -4.5700     4.6360 cc         1 FZS      -0.154400
      7 CAL         -0.9170     2.2310     3.5350 c3         1 FZS       0.047900
      8 CAX         -0.0860     1.9450     4.7710 ce         1 FZS      -0.256800
      9 CAZ          2.0200    -3.5690     2.7490 cf         1 FZS       0.328300
     10 CBA          1.3270     1.5760     4.6190 ce         1 FZS       0.467600
     11 CBB         -0.5920    -2.5160     5.0310 cc         1 FZS       0.777300
     12 CBC          1.0070    -3.5220     3.8250 cd         1 FZS       0.376000
     13 NAM          2.6480    -4.6810     2.4940 n2         1 FZS      -0.427200
     14 NAN          0.2650    -2.4390     4.0610 nd         1 FZS      -0.719000
     15 NBI          1.9070     1.2480     3.5320 n2         1 FZS      -0.585900
     16 OAD          1.6910     1.9830     6.8970 o          1 FZS      -0.810800
     17 OAE          3.2640    -2.3410     1.1930 o          1 FZS      -0.616100
     18 OAI          3.4340     1.1560     5.8040 o          1 FZS      -0.810800
     19 OAR          3.7020    -4.6990     1.5470 os         1 FZS      -0.147300
     20 SAT         -0.4710     0.9660     2.3010 ss         1 FZS      -0.401200
     21 SAU         -0.5010    -4.1110     5.7700 ss         1 FZS      -0.329300
     22 H1          -0.3140     0.0330    -0.8880 ho         1 FZS       0.382000
     23 H2           0.6920    -1.3050     2.6070 hn         1 FZS       0.371500
     24 H3           3.0190     0.0890     1.4430 h1         1 FZS       0.107700
     25 H4           1.7900     0.8840    -0.5110 h1         1 FZS       0.026700
     26 H5           1.7900    -0.8850    -0.5110 h1         1 FZS       0.026700
     27 H6           1.5480     2.1020     1.6710 h2         1 FZS       0.070700
     28 H7           4.7490    -6.3070     2.2980 h1         1 FZS       0.032033
     29 H8           3.5400    -6.6960     1.0670 h1         1 FZS       0.032033
     30 H9           5.0610    -5.9230     0.5990 h1         1 FZS       0.032033
     31 H13         -0.6840     3.2170     3.1540 h1         1 FZS       0.056700
     32 H14         -1.9710     2.1580     3.7740 h1         1 FZS       0.056700
     33 H16         -1.6150    -1.3390     6.3980 hn         1 FZS       0.452300
     34 H17         -1.9470    -0.9730     4.7370 hn         1 FZS       0.452300
     35 CAK         -0.6330     2.0260     5.9810 c2         1 FZS      -0.183000
     36 CAV          2.1600     1.5870     5.8500 c          1 FZS       0.804300
     37 NAC         -1.4450    -1.4990     5.4250 nv         1 FZS      -0.989500
     38 CAW          2.3220    -2.3490     1.9610 c          1 FZS       0.557800
     39 H10          1.2660    -5.5300     4.5980 h4         1 FZS       0.188000
     40 CAA          4.2990    -5.9840     1.3670 c3         1 FZS       0.132700
     41 H11         -0.0350     1.8200     6.8610 ha         1 FZS       0.136500
     42 H12         -1.6760     2.2970     6.0870 ha         1 FZS       0.136500
@<TRIPOS>BOND
     1     7     8 1
     2     7    20 1
     3    35     8 2
     4     8    10 1
     5    20     5 1
     6     5    15 1
     7     5     3 1
     8    17    38 2
     9    15    10 2
    10    10    36 1
    11    16    36 1
    12    38     2 1
    13    38     9 1
    14     3     2 1
    15     3     4 1
    16    36    18 1
    17     4     1 1
    18    19    40 1
    19    19    13 1
    20     9    13 2
    21     9    12 1
    22     6    12 2
    23     6    21 1
    24    12    14 1
    25    21    11 1
    26    14    11 2
    27    11    37 1
    28     1    22 1
    29     2    23 1
    30     3    24 1
    31     4    25 1
    32     4    26 1
    33     5    27 1
    34    40    28 1
    35    40    29 1
    36    40    30 1
    37     6    39 1
    38    35    41 1
    39    35    42 1
    40     7    31 1
    41     7    32 1
    42    37    33 1
    43    37    34 1
@<TRIPOS>SUBSTRUCTURE
     1 FZS         1 TEMP              0 ****  ****    0 ROOT
