@<TRIPOS>MOLECULE
FZZ
   63    66     1     0     0
SMALL
bcc


@<TRIPOS>ATOM
      1 O1         -0.0120   -1.0780    0.5660 o         1 FZZ     -0.430000
      2 C1          1.1300   -0.7190    0.1960 cc        1 FZZ      0.448000
      3 N1          2.0340   -0.3620    1.2060 n         1 FZZ     -0.622500
      4 C2          3.3440    0.0910    0.9250 c         1 FZZ      0.843900
      5 O2          4.1040    0.2820    1.9100 o         1 FZZ     -0.706500
      6 N2          3.7370    0.3280   -0.3950 nc        1 FZZ     -0.483400
      7 C3          1.6320   -0.6750   -1.1900 cd        1 FZZ     -0.005500
      8 N3          0.8300   -1.2930   -2.1150 nd        1 FZZ     -0.527700
      9 C4          1.2050   -1.6790   -3.2940 cc        1 FZZ      0.322900
     10 C5          0.3280   -2.5230   -4.1970 c3        1 FZZ     -0.087700
     11 C6          1.2890   -3.1910   -5.2270 c3        1 FZZ     -0.003700
     12 C7          1.4110   -4.6700   -4.9000 c3        1 FZZ     -0.077600
     13 C8          0.7300   -3.0010   -6.6250 c3        1 FZZ     -0.077600
     14 C9          2.6090   -2.4700   -5.0420 ca        1 FZZ     -0.068300
     15 C10         3.8030   -2.5740   -5.7500 ca        1 FZZ     -0.093300
     16 C11         3.9990   -3.5010   -6.8890 c3        1 FZZ     -0.037800
     17 C12         4.8790   -1.7400   -5.3670 ca        1 FZZ     -0.090300
     18 C13         6.1760   -1.8370   -6.0810 c3        1 FZZ     -0.041800
     19 C14         4.7460   -0.8120   -4.3370 ca        1 FZZ     -0.156000
     20 C15         2.4970   -1.5580   -3.9680 ca        1 FZZ     -0.129900
     21 C16         3.5250   -0.6640   -3.6380 ca        1 FZZ      0.027800
     22 C17         2.9000   -0.0010   -1.3930 cd        1 FZZ      0.075300
     23 N4          3.2610    0.3970   -2.7310 na        1 FZZ     -0.088300
     24 C18         4.1270    1.5580   -2.8920 c3        1 FZZ     -0.012700
     25 C19         3.5180    2.8940   -2.4150 c3        1 FZZ      0.150100
     26 O3          2.2280    3.1200   -2.9420 oh        1 FZZ     -0.591800
     27 C20         4.5020    4.0260   -2.8150 c3        1 FZZ      0.096100
     28 O4          4.5280    4.9350   -1.7260 oh        1 FZZ     -0.612800
     29 C21         4.0640    4.7580   -4.0980 c3        1 FZZ      0.093100
     30 O5          3.9700    3.8290   -5.1680 oh        1 FZZ     -0.626800
     31 C22         5.0000    5.9150   -4.4770 c3        1 FZZ      0.163400
     32 O6          6.2220    5.4100   -4.9230 os        1 FZZ     -0.587200
     33 P1          7.5710    6.1520   -4.3100 p5        1 FZZ      1.428800
     34 O7          7.3490    7.6080   -4.3790 o         1 FZZ     -0.832000
     35 O8          7.3260    5.6370   -2.7730 oh        1 FZZ     -0.796400
     36 O9          8.7500    5.3960   -4.7730 o         1 FZZ     -0.832000
     37 H1          1.7410   -0.4150    2.1530 hn        1 FZZ      0.308500
     38 H2          7.8070    4.8420   -2.5760 ho        1 FZZ      0.431000
     39 H3         -0.2350   -3.2970   -3.6210 hc        1 FZZ      0.042700
     40 H4         -0.4140   -1.8710   -4.7220 hc        1 FZZ      0.042700
     41 H5          0.4130   -5.1630   -4.9910 hc        1 FZZ      0.028200
     42 H6          1.7800   -4.7980   -3.8540 hc        1 FZZ      0.028200
     43 H7          2.1210   -5.1820   -5.5910 hc        1 FZZ      0.028200
     44 H8         -0.3000   -3.4310   -6.6830 hc        1 FZZ      0.028200
     45 H9          0.6770   -1.9140   -6.8740 hc        1 FZZ      0.028200
     46 H10         1.3670   -3.5070   -7.3880 hc        1 FZZ      0.028200
     47 H11         4.9710   -4.0470   -6.7860 hc        1 FZZ      0.028700
     48 H12         4.0240   -2.9270   -7.8500 hc        1 FZZ      0.028700
     49 H13         3.1850   -4.2610   -6.9570 hc        1 FZZ      0.028700
     50 H14         6.0220   -1.7540   -7.1860 hc        1 FZZ      0.032033
     51 H15         6.6620   -2.8220   -5.8700 hc        1 FZZ      0.032033
     52 H16         6.8770   -1.0260   -5.7630 hc        1 FZZ      0.032033
     53 H17         5.6070   -0.1760   -4.0780 ha        1 FZZ      0.137000
     54 H18         5.1170    1.4240   -2.3690 h1        1 FZZ      0.053200
     55 H19         4.3200    1.6750   -4.0010 h1        1 FZZ      0.053200
     56 H20         3.3750    2.9070   -1.2980 h1        1 FZZ      0.107700
     57 H21         2.2640    2.9190   -3.8870 ho        1 FZZ      0.407000
     58 H22         5.5310    3.6000   -2.9800 h1        1 FZZ      0.044700
     59 H23         5.3760    5.4000   -1.7730 ho        1 FZZ      0.429000
     60 H24         3.0200    5.1540   -3.9580 h1        1 FZZ      0.074700
     61 H25         4.8710    3.6830   -5.4880 ho        1 FZZ      0.423000
     62 H26         5.1490    6.6020   -3.6010 h1        1 FZZ      0.033700
     63 H27         4.5120    6.4840   -5.3200 h1        1 FZZ      0.033700
@<TRIPOS>BOND
     1    1    2 1   
     2    2    3 1   
     3    2    7 2   
     4    3    4 1   
     5    3   37 1   
     6    4    5 2   
     7    4    6 1   
     8    6   22 2   
     9    7    8 1   
    10    7   22 1   
    11    8    9 2   
    12    9   10 1   
    13    9   20 1   
    14   10   11 1   
    15   10   39 1   
    16   10   40 1   
    17   11   12 1   
    18   11   13 1   
    19   11   14 1   
    20   12   41 1   
    21   12   42 1   
    22   12   43 1   
    23   13   44 1   
    24   13   45 1   
    25   13   46 1   
    26   14   15 ar  
    27   14   20 ar  
    28   15   16 1   
    29   15   17 ar  
    30   16   47 1   
    31   16   48 1   
    32   16   49 1   
    33   17   18 1   
    34   17   19 ar  
    35   18   50 1   
    36   18   51 1   
    37   18   52 1   
    38   19   21 ar  
    39   19   53 1   
    40   20   21 ar  
    41   21   23 1   
    42   22   23 1   
    43   23   24 1   
    44   24   25 1   
    45   24   54 1   
    46   24   55 1   
    47   25   26 1   
    48   25   27 1   
    49   25   56 1   
    50   26   57 1   
    51   27   28 1   
    52   27   29 1   
    53   27   58 1   
    54   28   59 1   
    55   29   30 1   
    56   29   31 1   
    57   29   60 1   
    58   30   61 1   
    59   31   32 1   
    60   31   62 1   
    61   31   63 1   
    62   32   33 1   
    63   33   34 1   
    64   33   35 1   
    65   33   36 1   
    66   35   38 1   
@<TRIPOS>SUBSTRUCTURE
     1 FZZ         1 TEMP              0 ****  ****    0 ROOT
