@<TRIPOS>MOLECULE
molecule
   63    66     1     0     0
SMALL
bcc


@<TRIPOS>ATOM
      1 O1           0.0000     0.0000     0.0000 o          1 FZZ      -0.628500
      2 C1           1.2200     0.0000     0.0000 c          1 FZZ       0.599000
      3 N1           1.9000     0.0000     1.1610 ns         1 FZZ      -0.478400
      4 C2           3.2580     0.0030     1.1600 cc         1 FZZ       0.648200
      5 O2           3.9200     0.0020     2.3340 oh         1 FZZ      -0.565600
      6 N2           3.9400     0.0060     0.0370 nc         1 FZZ      -0.662100
      7 C3           1.9370    -0.0060    -1.2250 cd         1 FZZ       0.150500
      8 N3           1.2070    -0.0190    -2.3740 nd         1 FZZ      -0.621700
      9 C4           1.4810    -0.7020    -3.4300 cc         1 FZZ       0.506900
     10 C5           0.5820    -0.9660    -4.6250 c3         1 FZZ      -0.100700
     11 C6           1.2030    -2.2260    -5.2760 c3         1 FZZ      -0.020700
     12 C7           0.4660    -3.4840    -4.8100 c3         1 FZZ      -0.078600
     13 C8           1.1540    -2.1140    -6.8020 c3         1 FZZ      -0.078600
     14 C9           2.6240    -2.2490    -4.8010 ca         1 FZZ      -0.044300
     15 C10          3.7030    -3.0180    -5.2080 ca         1 FZZ      -0.092300
     16 C11          3.5530    -4.0730    -6.2720 c3         1 FZZ      -0.039800
     17 C12          4.9290    -2.7760    -4.5990 ca         1 FZZ      -0.064300
     18 C13          6.1200    -3.6050    -5.0080 c3         1 FZZ      -0.045800
     19 C14          5.0950    -1.7990    -3.6280 ca         1 FZZ      -0.156000
     20 C15          2.7730    -1.3050    -3.7800 ca         1 FZZ      -0.207900
     21 C16          4.0260    -1.0330    -3.2080 ca         1 FZZ       0.099800
     22 C17          3.3330     0.0060    -1.1550 cc         1 FZZ       0.279200
     23 N4           4.1280     0.0230    -2.2970 na         1 FZZ      -0.176300
     24 C18          5.0570     1.1280    -2.5410 c3         1 FZZ       0.037300
     25 C19          4.3470     2.2260    -3.3360 c3         1 FZZ       0.118100
     26 O3           3.9000     1.6950    -4.5850 oh         1 FZZ      -0.579800
     27 C20          5.3180     3.3800    -3.5920 c3         1 FZZ       0.115100
     28 O4           5.7650     3.9110    -2.3430 oh         1 FZZ      -0.600800
     29 C21          4.6080     4.4780    -4.3870 c3         1 FZZ       0.127100
     30 O5           4.1600     3.9470    -5.6370 oh         1 FZZ      -0.632800
     31 C22          5.5790     5.6320    -4.6420 c3         1 FZZ       0.195400
     32 O6           4.8840     6.7050    -5.2820 os         1 FZZ      -0.581200
     33 P1           5.5990     8.0860    -5.7000 p5         1 FZZ       1.187900
     34 O7           6.0830     8.8620    -4.3750 o          1 FZZ      -0.887833
     35 O8           6.7700     7.7960    -6.5570 o          1 FZZ      -0.887833
     36 O9           4.5570     9.0060    -6.5090 o          1 FZZ      -0.887833
     37 H1           1.4030    -0.0040     2.0290 hn         1 FZZ       0.327500
     38 H2           3.8170    -0.8370     2.7530 ho         1 FZZ       0.428000
     39 H3          -0.4310    -1.1670    -4.3000 hc         1 FZZ       0.074200
     40 H4           0.6110    -0.1300    -5.3130 hc         1 FZZ       0.074200
     41 H5           0.7860    -4.3310    -5.4050 hc         1 FZZ       0.036200
     42 H6           0.6910    -3.6690    -3.7670 hc         1 FZZ       0.036200
     43 H7          -0.6020    -3.3420    -4.9290 hc         1 FZZ       0.036200
     44 H8           0.2470    -1.6030    -7.0980 hc         1 FZZ       0.036200
     45 H9           2.0140    -1.5550    -7.1510 hc         1 FZZ       0.036200
     46 H10          1.1680    -3.1060    -7.2370 hc         1 FZZ       0.036200
     47 H11          4.2480    -4.8820    -6.0800 hc         1 FZZ       0.038033
     48 H12          2.5400    -4.4580    -6.2600 hc         1 FZZ       0.038033
     49 H13          3.7620    -3.6400    -7.2430 hc         1 FZZ       0.038033
     50 H14          6.2370    -3.5630    -6.0840 hc         1 FZZ       0.038700
     51 H15          5.9670    -4.6330    -4.7010 hc         1 FZZ       0.038700
     52 H16          7.0120    -3.2160    -4.5320 hc         1 FZZ       0.038700
     53 H17          6.0710    -1.6480    -3.1810 ha         1 FZZ       0.137000
     54 H18          5.3960     1.5310    -1.5940 h1         1 FZZ       0.058700
     55 H19          5.9080     0.7670    -3.1050 h1         1 FZZ       0.058700
     56 H20          3.4960     2.5880    -2.7720 h1         1 FZZ       0.095700
     57 H21          4.6370     1.5860    -5.1630 ho         1 FZZ       0.403000
     58 H22          6.1690     3.0180    -4.1560 h1         1 FZZ       0.031700
     59 H23          6.7080     3.9370    -2.3320 ho         1 FZZ       0.403000
     60 H24          3.7570     4.8390    -3.8230 h1         1 FZZ       0.048700
     61 H25          3.4880     4.5050    -5.9920 ho         1 FZZ       0.429000
     62 H26          5.9860     5.9770    -3.6990 h1         1 FZZ       0.020200
     63 H27          6.3850     5.2920    -5.2810 h1         1 FZZ       0.020200
@<TRIPOS>BOND
     1    16    15 1
     2    12    11 1
     3    18    17 1
     4    15    17 ar
     5    15    14 ar
     6    13    11 1
     7    17    19 ar
     8    11    14 1
     9    11    10 1
    10    14    20 ar
    11    19    21 ar
    12    10     9 1
    13    20    21 ar
    14    20     9 1
    15    21    23 1
    16     9     8 2
    17    26    25 1
    18     8     7 1
    19    23    24 1
    20    23    22 1
    21    24    25 1
    22    25    27 1
    23     7    22 2
    24     7     2 1
    25    22     6 1
    26    27    29 1
    27    27    28 1
    28    29    30 1
    29    29    31 1
    30     1     2 2
    31     2     3 1
    32    32    31 1
    33    32    33 1
    34     6     4 2
    35    35    33 1
    36     3     4 1
    37     4     5 1
    38    33    34 1
    39    33    36 1
    40     3    37 1
    41    10    39 1
    42    10    40 1
    43    12    41 1
    44    12    42 1
    45    12    43 1
    46    13    44 1
    47    13    45 1
    48    13    46 1
    49    16    47 1
    50    16    48 1
    51    16    49 1
    52    18    50 1
    53    18    51 1
    54    18    52 1
    55    19    53 1
    56    24    54 1
    57    24    55 1
    58    25    56 1
    59    26    57 1
    60    27    58 1
    61    28    59 1
    62    29    60 1
    63    30    61 1
    64    31    62 1
    65    31    63 1
    66     5    38 1
@<TRIPOS>SUBSTRUCTURE
     1 FZZ         1 TEMP              0 ****  ****    0 ROOT
