@<TRIPOS>MOLECULE
molecule
   58    62     1     0     0
SMALL
bcc


@<TRIPOS>ATOM
      1 C1           0.0000     0.0000     0.0000 ca         1 S01      -0.036800
      2 C2           1.3930     0.0000     0.0000 ca         1 S01      -0.103000
      3 C4           2.0620     0.0000     1.2100 ca         1 S01      -0.128000
      4 C6           1.3480    -0.0020     2.3960 ca         1 S01       0.029400
      5 Cl7          2.1960     0.0040     3.9100 cl         1 S01      -0.109400
      6 C8          -0.0370    -0.0070     2.3840 ca         1 S01      -0.121000
      7 C10         -0.7110    -0.0110     1.1740 ca         1 S01      -0.066300
      8 C11         -2.2080    -0.0270     1.1470 c3         1 S01      -0.033100
      9 C14         -2.7750    -1.3470     0.7000 c3         1 S01      -0.023100
     10 C17         -2.5380    -1.6880    -0.7460 ca         1 S01      -0.174600
     11 C18         -1.6810    -1.0730    -1.6380 ca         1 S01       0.488100
     12 N19         -1.6180    -1.4790    -2.9110 nb         1 S01      -0.688000
     13 C20         -2.3350    -2.4750    -3.3750 ca         1 S01       0.418200
     14 C22         -3.2020    -3.1540    -2.5370 ca         1 S01      -0.204600
     15 C23         -4.0220    -4.3060    -3.0590 c3         1 S01      -0.044800
     16 C27         -3.3100    -2.7570    -1.2210 ca         1 S01      -0.106000
     17 C29         -0.7690     0.0290    -1.2630 ce         1 S01      -0.156000
     18 C30         -0.6370     1.0770    -2.0850 c2         1 S01      -0.064400
     19 C31         -1.4080     1.1420    -3.3860 c3         1 S01      -0.066200
     20 C34         -2.1620     2.4760    -3.4360 c3         1 S01       0.104500
     21 N37         -1.2270     3.5600    -3.1100 n          1 S01      -0.493800
     22 C38         -0.5120     3.5300    -1.8290 c3         1 S01       0.104500
     23 C41          0.2800     2.2250    -1.7350 c3         1 S01      -0.066200
     24 C44         -1.0250     4.5710    -3.9800 c          1 S01       0.661100
     25 O45         -1.6200     4.5880    -5.0370 o          1 S01      -0.596100
     26 C46         -0.0640     5.6790    -3.6390 c3         1 S01      -0.113100
     27 C49         -0.0230     6.6750    -4.7690 ca         1 S01      -0.030300
     28 C50         -0.8890     7.7560    -4.7930 ca         1 S01      -0.238300
     29 C52         -0.8220     8.6500    -5.8450 ca         1 S01       0.421200
     30 N54          0.0510     8.4830    -6.8170 nb         1 S01      -0.690000
     31 C55          0.8900     7.4650    -6.8270 ca         1 S01       0.421200
     32 C57          0.8850     6.5350    -5.8050 ca         1 S01      -0.238300
     33 H2           1.9430     0.0010    -0.9330 ha         1 S01       0.148000
     34 H4           3.1450    -0.0400     1.2300 ha         1 S01       0.146000
     35 H8          -0.5900    -0.0090     3.3160 ha         1 S01       0.146000
     36 H111        -2.5400     0.7350     0.4530 hc         1 S01       0.056700
     37 H112        -2.5640     0.1680     2.1520 hc         1 S01       0.056700
     38 H141        -2.3160    -2.1230     1.3000 hc         1 S01       0.057700
     39 H142        -3.8470    -1.3140     0.8570 hc         1 S01       0.057700
     40 H20         -2.2360    -2.7770    -4.4110 h4         1 S01       0.027100
     41 H231        -3.6400    -5.2340    -2.6520 hc         1 S01       0.046367
     42 H232        -3.9610    -4.3330    -4.1400 hc         1 S01       0.046367
     43 H233        -5.0550    -4.1780    -2.7590 hc         1 S01       0.046367
     44 H27         -3.9840    -3.2780    -0.5510 ha         1 S01       0.138000
     45 H311        -2.1160     0.3230    -3.4300 hc         1 S01       0.071200
     46 H312        -0.7200     1.0820    -4.2200 hc         1 S01       0.071200
     47 H341        -2.9680     2.4640    -2.7120 h1         1 S01       0.057950
     48 H342        -2.5620     2.6290    -4.4310 h1         1 S01       0.057950
     49 H381         0.1680     4.3710    -1.7740 h1         1 S01       0.057950
     50 H382        -1.2260     3.5800    -1.0150 h1         1 S01       0.057950
     51 H411         1.1090     2.2530    -2.4320 hc         1 S01       0.071200
     52 H412         0.6510     2.0980    -0.7250 hc         1 S01       0.071200
     53 H461         0.9250     5.2640    -3.4870 hc         1 S01       0.068700
     54 H462        -0.3910     6.1740    -2.7330 hc         1 S01       0.068700
     55 H50         -1.6100     7.9000    -3.9960 ha         1 S01       0.136000
     56 H52         -1.4960     9.4980    -5.8710 h4         1 S01       0.022100
     57 H55          1.5960     7.3610    -7.6420 h4         1 S01       0.022100
     58 H57          1.5770     5.7010    -5.8190 ha         1 S01       0.136000
@<TRIPOS>BOND
     1     1     2 ar
     2     1     7 ar
     3     1    17 1
     4     2     3 ar
     5     2    33 1
     6     3     4 ar
     7     3    34 1
     8     4     5 1
     9     4     6 ar
    10     6     7 ar
    11     6    35 1
    12     7     8 1
    13     8     9 1
    14     8    36 1
    15     8    37 1
    16     9    10 1
    17     9    38 1
    18     9    39 1
    19    10    11 ar
    20    10    16 ar
    21    11    12 ar
    22    11    17 1
    23    12    13 ar
    24    13    14 ar
    25    13    40 1
    26    14    15 1
    27    14    16 ar
    28    15    41 1
    29    15    42 1
    30    15    43 1
    31    16    44 1
    32    17    18 2
    33    18    19 1
    34    18    23 1
    35    19    20 1
    36    19    45 1
    37    19    46 1
    38    20    21 1
    39    20    47 1
    40    20    48 1
    41    21    22 1
    42    21    24 1
    43    22    23 1
    44    22    49 1
    45    22    50 1
    46    23    51 1
    47    23    52 1
    48    24    25 2
    49    24    26 1
    50    26    27 1
    51    26    53 1
    52    26    54 1
    53    27    28 ar
    54    27    32 ar
    55    28    29 ar
    56    28    55 1
    57    29    30 ar
    58    29    56 1
    59    30    31 ar
    60    31    32 ar
    61    31    57 1
    62    32    58 1
@<TRIPOS>SUBSTRUCTURE
     1 S01         1 TEMP              0 ****  ****    0 ROOT
