@<TRIPOS>MOLECULE
molecule
   55    56     1     0     0
SMALL
bcc


@<TRIPOS>ATOM
      1 P            0.0000     0.0000     0.0000 p5         1 S02       1.156900
      2 O1P          1.4790     0.0000     0.0000 o          1 S02      -0.912833
      3 O2P         -0.5380     0.0000     1.5170 o          1 S02      -0.912833
      4 O3P         -0.5370     1.3150    -0.7590 o          1 S02      -0.912833
      5 O5'         -0.5370    -1.3140    -0.7610 os         1 S02      -0.532200
      6 C5'         -0.0300    -2.4410    -0.0440 c3         1 S02       0.161400
      7 CA'         -0.5050    -3.7300    -0.7180 c3         1 S02       0.113400
      8 OB'         -0.0270    -3.7680    -2.0640 os         1 S02      -0.356600
      9 C1A         -0.5020    -4.9880    -2.6360 c3         1 S02       0.131100
     10 C6A         -0.7070    -4.7980    -4.1390 c3         1 S02      -0.089400
     11 C2A          0.5210    -6.0970    -2.3890 c3         1 S02      -0.089400
     12 C3A         -0.0240    -7.4220    -2.9210 c3         1 S02      -0.051200
     13 C4A         -0.4090    -7.2400    -4.3720 c2         1 S02      -0.065400
     14 C7A          0.0320    -8.0790    -5.3040 ce         1 S02      -0.197000
     15 C5A         -1.3040    -6.0770    -4.7370 c3         1 S02      -0.051200
     16 C1B          3.1910   -11.0370    -7.7640 c3         1 S02       0.129100
     17 C6B          2.4160    -9.7510    -8.0480 c3         1 S02      -0.085900
     18 C2B          3.5160   -11.1270    -6.2720 c3         1 S02      -0.085900
     19 C3B          2.2120   -11.2230    -5.4730 c3         1 S02      -0.033200
     20 C4B          1.3290   -10.0530    -5.8500 c2         1 S02      -0.163400
     21 C7B          0.7960    -9.2740    -4.9160 ce         1 S02      -0.102000
     22 C5B          1.0710    -9.7950    -7.3170 c3         1 S02      -0.033200
     23 C3'          5.3850   -11.6730   -10.6300 c3         1 S02       0.140400
     24 O3'          6.3960   -12.4270    -9.9590 oh         1 S02      -0.596800
     25 H5'1        -0.3910    -2.4120     0.9760 h1         1 S02       0.048700
     26 H5'2         1.0530    -2.4120    -0.0450 h1         1 S02       0.048700
     27 HA1         -0.1210    -4.5850    -0.1740 h1         1 S02      -0.002800
     28 HA2         -1.5880    -3.7590    -0.7180 h1         1 S02      -0.002800
     29 H1A         -1.4450    -5.2620    -2.1780 h1         1 S02       0.027700
     30 H6A1        -1.3860    -3.9710    -4.3080 hc         1 S02       0.058450
     31 H6A2         0.2460    -4.5920    -4.6090 hc         1 S02       0.058450
     32 H2A1         0.7070    -6.1860    -1.3260 hc         1 S02       0.058450
     33 H2A2         1.4440    -5.8560    -2.9030 hc         1 S02       0.058450
     34 H3A1        -0.8970    -7.7110    -2.3480 hc         1 S02       0.041700
     35 H3A2         0.7390    -8.1860    -2.8420 hc         1 S02       0.041700
     36 H7A         -0.2540    -7.9340    -6.3390 ha         1 S02       0.124000
     37 H5A1        -2.2950    -6.2400    -4.3310 hc         1 S02       0.041700
     38 H5A2        -1.3570    -5.9840    -5.8150 hc         1 S02       0.041700
     39 H1B          2.5880   -11.8900    -8.0500 h1         1 S02       0.031700
     40 H6B1         2.2440    -9.6630    -9.1140 hc         1 S02       0.051450
     41 H6B2         2.9880    -8.9000    -7.6980 hc         1 S02       0.051450
     42 H2B1         4.0600   -10.2410    -5.9680 hc         1 S02       0.051450
     43 H2B2         4.1180   -12.0080    -6.0870 hc         1 S02       0.051450
     44 H3B1         1.7070   -12.1510    -5.7130 hc         1 S02       0.045950
     45 H3B2         2.4320   -11.1850    -4.4130 hc         1 S02       0.045950
     46 H7B          0.9920    -9.4730    -3.8690 ha         1 S02       0.132000
     47 H5B1         0.5620    -8.8460    -7.4350 hc         1 S02       0.045950
     48 H5B2         0.4620   -10.5930    -7.7240 hc         1 S02       0.045950
     49 HD'1         3.7680   -12.6560    -9.6120 h1         1 S02       0.030700
     50 HD'2         3.3510   -11.0730   -10.2820 h1         1 S02       0.030700
     51 H3'1         5.7360   -10.6600   -10.7900 h1         1 S02       0.024200
     52 H3'2         5.1650   -12.1330   -11.5850 h1         1 S02       0.024200
     53 HO3'         7.1450   -12.5220   -10.5250 ho         1 S02       0.393000
     54 OC'          4.4080   -11.0350    -8.5140 os         1 S02      -0.391600
     55 CD'          4.1180   -11.6440    -9.7730 c3         1 S02       0.131400
@<TRIPOS>BOND
     1     1     2 1
     2     1     3 1
     3     1     4 1
     4     1     5 1
     5     5     6 1
     6     6     7 1
     7     6    25 1
     8     6    26 1
     9     7     8 1
    10     7    27 1
    11     7    28 1
    12     8     9 1
    13     9    10 1
    14     9    11 1
    15     9    29 1
    16    10    15 1
    17    10    30 1
    18    10    31 1
    19    11    12 1
    20    11    32 1
    21    11    33 1
    22    12    13 1
    23    12    34 1
    24    12    35 1
    25    13    14 2
    26    13    15 1
    27    14    21 1
    28    14    36 1
    29    15    37 1
    30    15    38 1
    31    16    17 1
    32    16    18 1
    33    16    54 1
    34    16    39 1
    35    17    22 1
    36    17    40 1
    37    17    41 1
    38    18    19 1
    39    18    42 1
    40    18    43 1
    41    19    20 1
    42    19    44 1
    43    19    45 1
    44    20    21 2
    45    20    22 1
    46    21    46 1
    47    22    47 1
    48    22    48 1
    49    54    55 1
    50    55    23 1
    51    55    49 1
    52    55    50 1
    53    23    24 1
    54    23    51 1
    55    23    52 1
    56    24    53 1
@<TRIPOS>SUBSTRUCTURE
     1 S02         1 TEMP              0 ****  ****    0 ROOT
