@<TRIPOS>MOLECULE
molecule
   59    63     1     0     0
SMALL
bcc


@<TRIPOS>ATOM
      1 N33          0.0000     0.0000     0.0000 nv         1 S03      -1.015500
      2 C1           1.3830     0.0000     0.0000 ca         1 S03       0.771200
      3 N6           2.0640     0.0000     1.1430 nb         1 S03      -0.824000
      4 C5           3.3850    -0.0000     1.1470 ca         1 S03       0.731900
      5 C2           2.1010     0.0040    -1.2020 ca         1 S03      -0.380400
      6 C9           1.7440    -0.0040    -2.6280 cc         1 S03      -0.075400
      7 C10          0.3750    -0.0040    -3.1970 ca         1 S03       0.011200
      8 C11         -0.5690    -0.9260    -2.7480 ca         1 S03      -0.159000
      9 C12         -1.8430    -0.9220    -3.2810 ca         1 S03      -0.096000
     10 C13         -2.1860    -0.0070    -4.2590 ca         1 S03      -0.226000
     11 C14         -1.2520     0.9140    -4.7100 ca         1 S03       0.119100
     12 O16         -1.5930     1.8120    -5.6720 os         1 S03      -0.297900
     13 C17         -2.9590     1.5580    -6.0090 c3         1 S03       0.105700
     14 C15          0.0300     0.9150    -4.1860 ca         1 S03      -0.153000
     15 C8           2.9090    -0.0060    -3.3190 cd         1 S03      -0.083100
     16 C3           3.5060    -0.0040    -1.1510 ca         1 S03       0.519800
     17 N4           4.0990    -0.0020     0.0420 nb         1 S03      -0.790000
     18 N7           3.9630    -0.0060    -2.4440 na         1 S03      -0.082200
     19 C18          5.3140    -0.0080    -2.8160 ca         1 S03       0.000800
     20 C19          5.7790    -0.9300    -3.7440 ca         1 S03      -0.123000
     21 C20          7.1100    -0.9290    -4.1100 ca         1 S03      -0.108000
     22 C23          6.1890     0.9170    -2.2620 ca         1 S03      -0.123000
     23 C22          7.5210     0.9100    -2.6280 ca         1 S03      -0.108000
     24 C21          7.9810    -0.0100    -3.5520 ca         1 S03      -0.084300
     25 C24          9.4330    -0.0110    -3.9530 c3         1 S03       0.181100
     26 N26          9.6240     0.8770    -5.1070 n3         1 S03      -0.664600
     27 C27         11.0710     1.0220    -5.2930 c3         1 S03       0.132800
     28 C28         11.3510     1.9460    -6.4810 c3         1 S03      -0.088900
     29 C31          9.1000     2.1910    -4.7190 c3         1 S03       0.132800
     30 C30          9.2700     3.1790    -5.8750 c3         1 S03      -0.088900
     31 C29         10.7610     3.3300    -6.1930 c3         1 S03       0.144100
     32 O32         10.9240     4.1670    -7.3400 oh         1 S03      -0.602800
     33 H331        -0.5000     0.5010    -0.7070 hn         1 S03       0.446300
     34 H332        -0.5000    -0.4690     0.7290 hn         1 S03       0.446300
     35 H5           3.9020    -0.0000     2.0990 h5         1 S03       0.059100
     36 H11         -0.3040    -1.6440    -1.9820 ha         1 S03       0.145000
     37 H12         -2.5770    -1.6390    -2.9310 ha         1 S03       0.132000
     38 H13         -3.1870    -0.0090    -4.6730 ha         1 S03       0.142000
     39 H171        -3.5780     1.6870    -5.1290 h1         1 S03       0.044367
     40 H172        -3.2760     2.2530    -6.7770 h1         1 S03       0.044367
     41 H173        -3.0570     0.5440    -6.3750 h1         1 S03       0.044367
     42 H15          0.7600     1.6340    -4.5380 ha         1 S03       0.148000
     43 H8           2.9940     0.0000    -4.3990 h4         1 S03       0.182000
     44 H19          5.0970    -1.6500    -4.1810 ha         1 S03       0.147000
     45 H20          7.4730    -1.6480    -4.8340 ha         1 S03       0.140000
     46 H23          5.8300     1.6380    -1.5380 ha         1 S03       0.147000
     47 H22          8.2050     1.6300    -2.1940 ha         1 S03       0.140000
     48 H241         9.7340    -1.0170    -4.2180 h1         1 S03       0.045700
     49 H242        10.0370     0.3400    -3.1240 h1         1 S03       0.045700
     50 H271        11.5080     0.0500    -5.4840 h1         1 S03       0.039700
     51 H272        11.5070     1.4490    -4.3980 h1         1 S03       0.039700
     52 H281        12.4210     2.0320    -6.6270 hc         1 S03       0.059950
     53 H282        10.8910     1.5360    -7.3730 hc         1 S03       0.059950
     54 H311         9.6450     2.5530    -3.8550 h1         1 S03       0.039700
     55 H312         8.0480     2.1010    -4.4760 h1         1 S03       0.039700
     56 H301         8.7520     2.8040    -6.7490 hc         1 S03       0.059950
     57 H302         8.8620     4.1410    -5.5910 hc         1 S03       0.059950
     58 H29         11.2690     3.7680    -5.3420 h1         1 S03       0.025700
     59 H32         11.4690     4.9040    -7.1160 ho         1 S03       0.400000
@<TRIPOS>BOND
     1     1     2 1
     2     1    33 1
     3     1    34 1
     4     2     3 ar
     5     2     5 ar
     6     3     4 ar
     7     4    17 ar
     8     4    35 1
     9     5     6 1
    10     5    16 ar
    11     6     7 1
    12     6    15 2
    13     7     8 ar
    14     7    14 ar
    15     8     9 ar
    16     8    36 1
    17     9    10 ar
    18     9    37 1
    19    10    11 ar
    20    10    38 1
    21    11    12 1
    22    11    14 ar
    23    12    13 1
    24    13    39 1
    25    13    40 1
    26    13    41 1
    27    14    42 1
    28    15    18 1
    29    15    43 1
    30    16    17 ar
    31    16    18 1
    32    18    19 1
    33    19    20 ar
    34    19    22 ar
    35    20    21 ar
    36    20    44 1
    37    21    24 ar
    38    21    45 1
    39    22    23 ar
    40    22    46 1
    41    23    24 ar
    42    23    47 1
    43    24    25 1
    44    25    26 1
    45    25    48 1
    46    25    49 1
    47    26    27 1
    48    26    29 1
    49    27    28 1
    50    27    50 1
    51    27    51 1
    52    28    31 1
    53    28    52 1
    54    28    53 1
    55    29    30 1
    56    29    54 1
    57    29    55 1
    58    30    31 1
    59    30    56 1
    60    30    57 1
    61    31    32 1
    62    31    58 1
    63    32    59 1
@<TRIPOS>SUBSTRUCTURE
     1 S03         1 TEMP              0 ****  ****    0 ROOT
