@<TRIPOS>MOLECULE
molecule
   45    48     1     0     0
SMALL
bcc


@<TRIPOS>ATOM
      1 C1           0.0000     0.0000     0.0000 ca         1 S05      -0.126300
      2 C2           1.5060     0.0000     0.0000 c3         1 S05      -0.028100
      3 C3           2.0410     0.0000     1.4320 c3         1 S05      -0.103400
      4 C4           1.3670    -1.1350     2.2140 c3         1 S05       0.089000
      5 N5          -0.0730    -0.8470     2.2700 n          1 S05      -0.396000
      6 C6          -0.7240    -0.4180     1.1060 ca         1 S05       0.090600
      7 C13         -2.1140    -0.4100     1.0700 ca         1 S05      -0.150000
      8 C14         -2.7740     0.0120    -0.0660 ca         1 S05      -0.109000
      9 C15         -2.0510     0.4300    -1.1690 ca         1 S05      -0.154000
     10 C16         -0.6700     0.4210    -1.1360 ca         1 S05      -0.108000
     11 C21         -0.7560    -0.9940     3.4230 c          1 S05       0.795100
     12 O22         -1.8250    -0.4330     3.5720 o          1 S05      -0.640100
     13 N23         -0.2560    -1.7640     4.4100 n          1 S05      -0.504800
     14 C24          0.9210    -2.6110     4.1740 c3         1 S05       0.094000
     15 C25          0.5810    -4.0490     4.5810 c3         1 S05      -0.090900
     16 C26          0.0780    -4.0610     6.0260 c3         1 S05       0.010600
     17 C27         -1.1940    -3.2160     6.1300 c3         1 S05      -0.090900
     18 C28         -0.8710    -1.7650     5.7430 c3         1 S05       0.094000
     19 C38         -0.2250    -5.4780     6.4400 cc         1 S05      -0.236900
     20 N39         -0.0480    -6.0200     7.6840 na         1 S05      -0.294900
     21 C40         -0.4430    -7.3100     7.6190 cc         1 S05       0.393400
     22 N41         -0.8460    -7.5620     6.4030 nd         1 S05      -0.695000
     23 C42         -0.7270    -6.4530     5.6580 cd         1 S05       0.319200
     24 H2           1.8620    -0.8850    -0.5130 hc         1 S05       0.051700
     25 H2A          1.8620     0.8850    -0.5130 hc         1 S05       0.051700
     26 H3           3.1120    -0.1570     1.4190 hc         1 S05       0.056200
     27 H3A          1.8130     0.9490     1.9040 hc         1 S05       0.056200
     28 H4           1.5210    -2.0690     1.6860 h1         1 S05       0.060700
     29 H4A          1.7640    -1.1570     3.2210 h1         1 S05       0.060700
     30 H13         -2.6790    -0.7380     1.9350 ha         1 S05       0.179000
     31 H14         -3.8570     0.0190    -0.0930 ha         1 S05       0.132000
     32 H15         -2.5690     0.7620    -2.0610 ha         1 S05       0.127000
     33 H16         -0.1080     0.7500    -2.0020 ha         1 S05       0.128000
     34 H24          1.1820    -2.5840     3.1230 h1         1 S05       0.062700
     35 H24A         1.7510    -2.2530     4.7700 h1         1 S05       0.062700
     36 H25         -0.1920    -4.4360     3.9270 hc         1 S05       0.058700
     37 H25A         1.4690    -4.6650     4.5030 hc         1 S05       0.058700
     38 H26          0.8390    -3.6450     6.6750 hc         1 S05       0.048700
     39 H27         -1.5630    -3.2450     7.1480 hc         1 S05       0.058700
     40 H27A        -1.9450    -3.6110     5.4570 hc         1 S05       0.058700
     41 H28         -1.7850    -1.1830     5.7220 h1         1 S05       0.062700
     42 H28A        -0.1800    -1.3430     6.4630 h1         1 S05       0.062700
     43 H40         -0.4270    -8.0170     8.4390 h5         1 S05       0.065100
     44 H42         -0.9850    -6.3600     4.6100 h4         1 S05       0.042100
     45 HN39         0.3090    -5.5480     8.4920 hn         1 S05       0.296700
@<TRIPOS>BOND
     1    10     1 ar
     2     1     6 ar
     3     1     2 1
     4     2     3 1
     5     2    24 1
     6     2    25 1
     7     3     4 1
     8     3    26 1
     9     3    27 1
    10     5     4 1
    11     4    28 1
    12     4    29 1
    13     6     5 1
    14     5    11 1
    15     7     6 ar
    16     8     7 ar
    17     7    30 1
    18     9     8 ar
    19     8    31 1
    20     9    10 ar
    21     9    32 1
    22    10    33 1
    23    13    11 1
    24    11    12 2
    25    14    13 1
    26    13    18 1
    27    14    15 1
    28    14    34 1
    29    14    35 1
    30    15    16 1
    31    15    36 1
    32    15    37 1
    33    17    16 1
    34    16    19 1
    35    16    38 1
    36    17    18 1
    37    17    39 1
    38    17    40 1
    39    18    41 1
    40    18    42 1
    41    19    20 1
    42    19    23 2
    43    20    21 1
    44    21    22 2
    45    21    43 1
    46    23    22 1
    47    23    44 1
    48    20    45 1
@<TRIPOS>SUBSTRUCTURE
     1 S05         1 TEMP              0 ****  ****    0 ROOT
