@<TRIPOS>MOLECULE
S06
   46    49     1     0     0
SMALL
bcc


@<TRIPOS>ATOM
      1 C10          0.0000     0.0000     0.0000 ca         1 S06      -0.084000
      2 C11          1.4050     0.0000     0.0000 ca         1 S06      -0.037000
      3 C12          2.1340     0.0000     1.2010 ca         1 S06      -0.088000
      4 C13          3.4950    -0.0010     1.1630 ca         1 S06      -0.102000
      5 C14          4.1790    -0.0000    -0.0510 ca         1 S06      -0.101000
      6 C15          3.5050     0.0000    -1.2350 ca         1 S06      -0.088000
      7 C16          2.1010    -0.0000    -1.2350 ca         1 S06      -0.033000
      8 C17          1.3700    -0.0000    -2.4370 ca         1 S06      -0.094000
      9 C18          0.0100    -0.0000    -2.3980 ca         1 S06      -0.078000
     10 C9          -0.6740     0.0010    -1.1830 ca         1 S06      -0.088300
     11 C8          -2.1810    -0.0010    -1.1800 c3         1 S06       0.152800
     12 C7          -2.7290    -1.4190    -1.4890 c3         1 S06      -0.043400
     13 N1          -2.7060     0.8190    -2.2970 n7         1 S06      -0.340700
     14 O7          -3.8780     0.1330    -2.8540 os         1 S06      -0.270100
     15 C1          -4.0990    -1.0820    -2.1170 c3         1 S06       0.333600
     16 O5          -5.0650    -0.8780    -1.0920 os         1 S06      -0.399600
     17 C5          -6.3660    -0.5310    -1.5730 c3         1 S06       0.164100
     18 C6          -7.3140    -0.3360    -0.3880 c3         1 S06       0.224400
     19 O6          -6.8860     0.7860     0.3850 oh         1 S06      -0.584800
     20 C4          -6.8930    -1.6550    -2.4690 c3         1 S06       0.142100
     21 O4          -8.1730    -1.2900    -2.9890 oh         1 S06      -0.579800
     22 C3          -5.9150    -1.8780    -3.6270 c3         1 S06       0.140100
     23 O3          -6.3690    -2.9690    -4.4320 oh         1 S06      -0.592800
     24 C2          -4.5310    -2.2040    -3.0540 c3         1 S06       0.159100
     25 O2          -3.5890    -2.3240    -4.1210 oh         1 S06      -0.562800
     26 H10         -0.5450     0.0010     0.9370 ha         1 S06       0.108000
     27 H12          1.6170    -0.0000     2.1530 ha         1 S06       0.105000
     28 H13          4.0550    -0.0010     2.0900 ha         1 S06       0.100000
     29 H14          5.2620    -0.0010    -0.0540 ha         1 S06       0.100000
     30 H15          4.0500     0.0010    -2.1710 ha         1 S06       0.106000
     31 H17          1.8880    -0.0010    -3.3890 ha         1 S06       0.107000
     32 H18         -0.5500    -0.0000    -3.3250 ha         1 S06       0.128000
     33 H8          -2.5670     0.3570    -0.2330 h1         1 S06       0.033700
     34 H71         -2.0930    -1.9330    -2.2000 hc         1 S06       0.047700
     35 H72         -2.8510    -1.9930    -0.5790 hc         1 S06       0.047700
     36 HN1         -2.9790     1.7180    -1.9510 hn         1 S06       0.261800
     37 H5          -6.3050     0.3860    -2.1470 h1         1 S06       0.044700
     38 H61         -8.3180    -0.1610    -0.7540 h1         1 S06      -0.003300
     39 H62         -7.3060    -1.2250     0.2310 h1         1 S06      -0.003300
     40 HO6         -7.4930     0.9310     1.0920 ho         1 S06       0.389000
     41 H4          -6.9790    -2.5660    -1.8900 h1         1 S06       0.017700
     42 HO4         -8.7540    -2.0310    -2.9420 ho         1 S06       0.398000
     43 H3          -5.8550    -0.9780    -4.2270 h1         1 S06       0.041700
     44 HO3         -6.5350    -2.6650    -5.3080 ho         1 S06       0.403000
     45 H2          -4.5800    -3.1350    -2.5030 h1         1 S06       0.023700
     46 HO2         -3.4490    -3.2360    -4.3170 ho         1 S06       0.393000
@<TRIPOS>BOND
     1     1     2 ar  
     2     1    10 ar  
     3     1    26 1   
     4     2     3 ar  
     5     2     7 ar  
     6     3     4 ar  
     7     3    27 1   
     8     4     5 ar  
     9     4    28 1   
    10     5     6 ar  
    11     5    29 1   
    12     6     7 ar  
    13     6    30 1   
    14     7     8 ar  
    15     8     9 ar  
    16     8    31 1   
    17     9    10 ar  
    18     9    32 1   
    19    10    11 1   
    20    11    12 1   
    21    11    13 1   
    22    11    33 1   
    23    12    15 1   
    24    12    34 1   
    25    12    35 1   
    26    13    14 1   
    27    13    36 1   
    28    14    15 1   
    29    15    16 1   
    30    15    24 1   
    31    16    17 1   
    32    17    18 1   
    33    17    20 1   
    34    17    37 1   
    35    18    19 1   
    36    18    38 1   
    37    18    39 1   
    38    19    40 1   
    39    20    21 1   
    40    20    22 1   
    41    20    41 1   
    42    21    42 1   
    43    22    23 1   
    44    22    24 1   
    45    22    43 1   
    46    23    44 1   
    47    24    25 1   
    48    24    45 1   
    49    25    46 1   
@<TRIPOS>SUBSTRUCTURE
     1 S06         1 TEMP              0 ****  ****    0 ROOT
