@<TRIPOS>MOLECULE
molecule
   46    49     1     0     0
SMALL
bcc


@<TRIPOS>ATOM
      1 C10          0.0000     0.0000     0.0000 ca         1 S06      -0.111000
      2 C11          1.4050     0.0000     0.0000 ca         1 S06      -0.038000
      3 C12          2.1340     0.0000     1.2010 ca         1 S06      -0.115000
      4 C13          3.4950    -0.0010     1.1630 ca         1 S06      -0.128000
      5 C14          4.1790    -0.0000    -0.0510 ca         1 S06      -0.125000
      6 C15          3.5050     0.0000    -1.2350 ca         1 S06      -0.117000
      7 C16          2.1010    -0.0000    -1.2350 ca         1 S06      -0.032000
      8 C17          1.3700    -0.0000    -2.4370 ca         1 S06      -0.124000
      9 C18          0.0100    -0.0000    -2.3980 ca         1 S06      -0.100000
     10 C9          -0.6740     0.0010    -1.1830 ca         1 S06      -0.075300
     11 C8          -2.1810    -0.0010    -1.1800 c3         1 S06       0.164800
     12 C7          -2.7290    -1.4190    -1.4890 c3         1 S06      -0.074400
     13 N1          -2.7060     0.8190    -2.2970 n7         1 S06      -0.531700
     14 O7          -3.8780     0.1330    -2.8540 os         1 S06      -0.232100
     15 C1          -4.0990    -1.0820    -2.1170 c3         1 S06       0.300600
     16 O5          -5.0650    -0.8780    -1.0920 os         1 S06      -0.412600
     17 C5          -6.3660    -0.5310    -1.5730 c3         1 S06       0.145100
     18 C6          -7.3140    -0.3360    -0.3880 c3         1 S06       0.151400
     19 O6          -6.8860     0.7860     0.3850 oh         1 S06      -0.601800
     20 C4          -6.8930    -1.6550    -2.4690 c3         1 S06       0.106100
     21 O4          -8.1730    -1.2900    -2.9890 oh         1 S06      -0.599800
     22 C3          -5.9150    -1.8780    -3.6270 c3         1 S06       0.106100
     23 O3          -6.3690    -2.9690    -4.4320 oh         1 S06      -0.611800
     24 C2          -4.5310    -2.2040    -3.0540 c3         1 S06       0.133100
     25 O2          -3.5890    -2.3240    -4.1210 oh         1 S06      -0.581800
     26 H10         -0.5450     0.0010     0.9370 ha         1 S06       0.133000
     27 H12          1.6170    -0.0000     2.1530 ha         1 S06       0.131000
     28 H13          4.0550    -0.0010     2.0900 ha         1 S06       0.128000
     29 H14          5.2620    -0.0010    -0.0540 ha         1 S06       0.128000
     30 H15          4.0500     0.0010    -2.1710 ha         1 S06       0.133000
     31 H17          1.8880    -0.0010    -3.3890 ha         1 S06       0.135000
     32 H18         -0.5500    -0.0000    -3.3250 ha         1 S06       0.157000
     33 H8          -2.5670     0.3570    -0.2330 h1         1 S06       0.059700
     34 H71         -2.0930    -1.9330    -2.2000 hc         1 S06       0.079700
     35 H72         -2.8510    -1.9930    -0.5790 hc         1 S06       0.079700
     36 HN1         -2.9790     1.7180    -1.9510 hn         1 S06       0.360800
     37 H5          -6.3050     0.3860    -2.1470 h1         1 S06       0.079700
     38 H61         -8.3180    -0.1610    -0.7540 h1         1 S06       0.034700
     39 H62         -7.3060    -1.2250     0.2310 h1         1 S06       0.034700
     40 HO6         -7.4930     0.9310     1.0920 ho         1 S06       0.403000
     41 H4          -6.9790    -2.5660    -1.8900 h1         1 S06       0.050700
     42 HO4         -8.7540    -2.0310    -2.9420 ho         1 S06       0.412000
     43 H3          -5.8550    -0.9780    -4.2270 h1         1 S06       0.078700
     44 HO3         -6.5350    -2.6650    -5.3080 ho         1 S06       0.416000
     45 H2          -4.5800    -3.1350    -2.5030 h1         1 S06       0.057700
     46 HO2         -3.4490    -3.2360    -4.3170 ho         1 S06       0.409000
@<TRIPOS>BOND
     1    23    22 1
     2    21    20 1
     3    22    20 1
     4    22    24 1
     5    20    17 1
     6    25    24 1
     7    24    15 1
     8    19    18 1
     9    17    18 1
    10    17    16 1
    11    15    16 1
    12    15    14 1
    13    15    12 1
    14    14    13 1
    15    12    11 1
    16    13    11 1
    17    11    10 1
    18     1    10 ar
    19     1     2 ar
    20    10     9 ar
    21     3     2 ar
    22     3     4 ar
    23     2     7 ar
    24     9     8 ar
    25     4     5 ar
    26     7     8 ar
    27     7     6 ar
    28     5     6 ar
    29     1    26 1
    30     3    27 1
    31     4    28 1
    32     5    29 1
    33     6    30 1
    34     8    31 1
    35     9    32 1
    36    11    33 1
    37    12    34 1
    38    12    35 1
    39    13    36 1
    40    17    37 1
    41    18    38 1
    42    18    39 1
    43    19    40 1
    44    20    41 1
    45    21    42 1
    46    22    43 1
    47    23    44 1
    48    24    45 1
    49    25    46 1
@<TRIPOS>SUBSTRUCTURE
     1 S06         1 TEMP              0 ****  ****    0 ROOT
