@<TRIPOS>MOLECULE
S0A
   31    32     1     0     0
SMALL
bcc


@<TRIPOS>ATOM
      1 C15          0.0000     0.0000     0.0000 ca         1 S0A      -0.118000
      2 C14          1.3830     0.0000     0.0000 ca         1 S0A      -0.085000
      3 C13         -0.6930     0.0050     1.1960 ca         1 S0A      -0.085000
      4 C11          2.0760     0.0000     1.1940 ca         1 S0A      -0.121000
      5 C12         -0.0070     0.0060     2.3940 ca         1 S0A      -0.121000
      6 C9           1.3810    -0.0000     2.3970 ca         1 S0A      -0.074400
      7 C1           3.2420    -0.6750     3.7190 c          1 S0A       0.568100
      8 C4           7.3350    -1.4980     6.4360 cx         1 S0A      -0.081900
      9 C5           6.1980    -1.8920     7.3810 cx         1 S0A      -0.081900
     10 C2           5.9270    -0.9410     6.2150 cx         1 S0A      -0.139700
     11 C10          4.8380    -2.9720     5.2500 c3         1 S0A      -0.031100
     12 C7           5.1300    -1.4850     5.0280 c3         1 S0A       0.077700
     13 N6           2.0800    -0.0000     3.6100 ns         1 S0A      -0.056100
     14 N3           3.8670    -0.7520     4.9100 ns         1 S0A      -0.210900
     15 O8           3.7260    -1.2140     2.7420 o          1 S0A      -0.697100
     16 H1          -0.5410    -0.0000    -0.9390 ha         1 S0A       0.101000
     17 H2           1.9240    -0.0020    -0.9390 ha         1 S0A       0.101500
     18 H3          -1.7760     0.0070     1.1930 ha         1 S0A       0.101500
     19 H4           3.1590    -0.0020     1.1930 ha         1 S0A       0.125500
     20 H5          -0.5510     0.0080     3.3310 ha         1 S0A       0.125500
     21 H6           7.6490    -2.2650     5.7380 hc         1 S0A       0.050950
     22 H7           8.0570    -0.7980     6.8390 hc         1 S0A       0.050950
     23 H8           6.2260    -1.4330     8.3620 hc         1 S0A       0.050950
     24 H9           5.8180    -2.8990     7.2610 hc         1 S0A       0.050950
     25 H10          5.8020     0.0980     6.4960 hc         1 S0A       0.059700
     26 H11          5.7710    -3.5110     5.3590 hc         1 S0A       0.017367
     27 H12          4.2450    -3.0930     6.1480 hc         1 S0A       0.017367
     28 H13          4.2920    -3.3630     4.4010 hc         1 S0A       0.017367
     29 H14          5.7060    -1.3620     4.1190 h1         1 S0A       0.059700
     30 H15          1.7330     0.5270     4.3870 hn         1 S0A       0.159500
     31 H16          3.4840    -0.2820     5.7070 hn         1 S0A       0.167500
@<TRIPOS>BOND
     1     1     2 ar  
     2     1     3 ar  
     3     1    16 1   
     4     2     4 ar  
     5     2    17 1   
     6     3     5 ar  
     7     3    18 1   
     8     4     6 ar  
     9     4    19 1   
    10     5     6 ar  
    11     5    20 1   
    12     6    13 1   
    13     7    13 1   
    14     7    14 1   
    15     7    15 2   
    16     8     9 1   
    17     8    10 1   
    18     8    21 1   
    19     8    22 1   
    20     9    10 1   
    21     9    23 1   
    22     9    24 1   
    23    10    12 1   
    24    10    25 1   
    25    11    12 1   
    26    11    26 1   
    27    11    27 1   
    28    11    28 1   
    29    12    14 1   
    30    12    29 1   
    31    13    30 1   
    32    14    31 1   
@<TRIPOS>SUBSTRUCTURE
     1 S0A         1 TEMP              0 ****  ****    0 ROOT
