@<TRIPOS>MOLECULE
S0B
   31    32     1     0     0
SMALL
bcc


@<TRIPOS>ATOM
      1 C15          0.0000     0.0000     0.0000 ca         1 S0B      -0.101000
      2 C13          1.3820     0.0000     0.0000 ca         1 S0B      -0.097000
      3 C14         -0.6910     0.0060     1.1970 ca         1 S0B      -0.097000
      4 C11          2.0740     0.0000     1.1970 ca         1 S0B      -0.094500
      5 C12          0.0010     0.0130     2.3940 ca         1 S0B      -0.094500
      6 C10          1.3830     0.0000     2.3940 ca         1 S0B      -0.091300
      7 C1           3.4440    -2.6120     6.0350 c2         1 S0B       0.544100
      8 C7           3.5670    -4.9570     6.3120 c3         1 S0B       0.174800
      9 C5           4.3140    -4.5790     7.6020 c3         1 S0B       0.052400
     10 C8           5.7430    -5.1230     7.5760 c3         1 S0B       0.018900
     11 C9           2.1370     0.0090     3.6990 c3         1 S0B       0.019900
     12 C6           2.3780    -1.4320     4.1570 c3         1 S0B       0.163800
     13 N4           3.1610    -3.7790     5.5780 n2         1 S0B      -0.657900
     14 N3           3.1110    -1.4240     5.4260 nu         1 S0B      -0.436200
     15 S2           4.3170    -2.7570     7.5650 ss         1 S0B      -0.392300
     16 H1          -0.5420    -0.0030    -0.9380 ha         1 S0B       0.102000
     17 H2           1.9230    -0.0020    -0.9380 ha         1 S0B       0.103000
     18 H3          -1.7740     0.0110     1.1980 ha         1 S0B       0.103000
     19 H4           3.1580    -0.0050     1.1970 ha         1 S0B       0.106000
     20 H5          -0.5410     0.0150     3.3330 ha         1 S0B       0.106000
     21 H7           2.6870    -5.5330     6.5690 h1         1 S0B       0.030700
     22 H8           4.2200    -5.5550     5.6880 h1         1 S0B       0.030700
     23 H9           3.7760    -4.9390     8.4710 h1         1 S0B       0.063700
     24 H10          6.2710    -4.7940     8.4630 hc         1 S0B       0.014033
     25 H11          6.2540    -4.7550     6.6950 hc         1 S0B       0.014033
     26 H12          5.7170    -6.2060     7.5520 hc         1 S0B       0.014033
     27 H13          1.5560     0.5340     4.4480 hc         1 S0B       0.020700
     28 H14          3.0880     0.5090     3.5640 hc         1 S0B       0.020700
     29 H15          2.9590    -1.9560     3.4080 h1         1 S0B       0.029700
     30 H16          1.4270    -1.9320     4.2920 h1         1 S0B       0.029700
     31 H19          3.3570    -0.5540     5.8560 hn         1 S0B       0.298800
@<TRIPOS>BOND
     1     1     2 ar  
     2     1     3 ar  
     3     1    16 1   
     4     2     4 ar  
     5     2    17 1   
     6     3     5 ar  
     7     3    18 1   
     8     4     6 ar  
     9     4    19 1   
    10     5     6 ar  
    11     5    20 1   
    12     6    11 1   
    13     7    13 2   
    14     7    14 1   
    15     7    15 1   
    16     8     9 1   
    17     8    13 1   
    18     8    21 1   
    19     8    22 1   
    20     9    10 1   
    21     9    15 1   
    22     9    23 1   
    23    10    24 1   
    24    10    25 1   
    25    10    26 1   
    26    11    12 1   
    27    11    27 1   
    28    11    28 1   
    29    12    14 1   
    30    12    29 1   
    31    12    30 1   
    32    14    31 1   
@<TRIPOS>SUBSTRUCTURE
     1 S0B         1 TEMP              0 ****  ****    0 ROOT
