@<TRIPOS>MOLECULE
S0C
   28    29     1     0     0
SMALL
bcc


@<TRIPOS>ATOM
      1 C7           0.0000     0.0000     0.0000 cc         1 S0C       0.379200
      2 C6           1.3340     0.0000     0.0000 cd         1 S0C      -0.165400
      3 C4           0.2580    -0.0040     2.2140 cd         1 S0C       0.402300
      4 C1           0.7880    -0.0090     4.5250 c          1 S0C       0.541100
      5 C14          3.0970     1.4160     8.1540 c3         1 S0C      -0.023400
      6 C13          2.3830     0.4630     9.1290 c3         1 S0C      -0.023400
      7 C11          2.3140     1.3560     6.8270 c3         1 S0C      -0.027900
      8 C12          1.1900    -0.1430     8.3610 c3         1 S0C      -0.027900
      9 C10          1.5960    -0.0160     6.8700 c3         1 S0C      -0.037700
     10 C9           0.3590    -0.0090     5.9700 c3         1 S0C      -0.085400
     11 N8          -0.5490     0.0010     1.1990 nc         1 S0C      -0.632000
     12 N3          -0.1380    -0.0040     3.5460 ns         1 S0C      -0.059400
     13 O2           1.9680    -0.0140     4.2430 o          1 S0C      -0.601100
     14 S5           1.8800     0.0000     1.6750 ss         1 S0C      -0.219300
     15 H1          -0.5850     0.0020    -0.9120 h4         1 S0C      -0.001900
     16 H2           1.9700     0.0010    -0.8770 h4         1 S0C       0.158000
     17 H3           3.0820     2.4260     8.5460 hc         1 S0C       0.012700
     18 H4           4.1170     1.0880     7.9970 hc         1 S0C       0.012700
     19 H5           3.0600    -0.3230     9.4400 hc         1 S0C       0.012700
     20 H6           2.0260     1.0150     9.9900 hc         1 S0C       0.012700
     21 H7           2.9940     1.3990     5.9850 hc         1 S0C       0.019200
     22 H8           1.5890     2.1590     6.7790 hc         1 S0C       0.019200
     23 H9           1.0580    -1.1840     8.6290 hc         1 S0C       0.019200
     24 H10          0.2880     0.4240     8.5560 hc         1 S0C       0.019200
     25 H11          2.2770    -0.8110     6.5910 hc         1 S0C       0.051700
     26 H12         -0.2290     0.8770     6.1720 hc         1 S0C       0.033700
     27 H13         -0.2370    -0.8920     6.1690 hc         1 S0C       0.033700
     28 H14         -1.1110    -0.0070     3.7790 hn         1 S0C       0.177500
@<TRIPOS>BOND
     1     1     2 2   
     2     1    11 1   
     3     1    15 1   
     4     2    14 1   
     5     2    16 1   
     6     3    11 2   
     7     3    12 1   
     8     3    14 1   
     9     4    10 1   
    10     4    12 1   
    11     4    13 2   
    12     5     6 1   
    13     5     7 1   
    14     5    17 1   
    15     5    18 1   
    16     6     8 1   
    17     6    19 1   
    18     6    20 1   
    19     7     9 1   
    20     7    21 1   
    21     7    22 1   
    22     8     9 1   
    23     8    23 1   
    24     8    24 1   
    25     9    10 1   
    26     9    25 1   
    27    10    26 1   
    28    10    27 1   
    29    12    28 1   
@<TRIPOS>SUBSTRUCTURE
     1 S0C         1 TEMP              0 ****  ****    0 ROOT
