@<TRIPOS>MOLECULE
S0D
   25    24     1     0     0
SMALL
bcc


@<TRIPOS>ATOM
      1 C15         0.1830    2.6860    1.7930 c1        1 S0D      0.194000
      2 C14         1.7340   -2.8450    0.7620 c1        1 S0D      0.239000
      3 C12         0.5360    1.4350    1.5670 c2        1 S0D     -0.403000
      4 C13         1.3840   -1.5910    0.9890 c2        1 S0D     -0.411000
      5 C8          1.2390   -1.4200    9.6720 c1        1 S0D      0.161000
      6 C6          0.7990    0.2750    6.6700 c1        1 S0D     -0.137000
      7 C2          1.1460   -0.9560    5.9250 c3        1 S0D     -0.116000
      8 C9          0.8160    0.3880    2.5050 c2        1 S0D     -0.039000
      9 C10         1.1940   -0.9640    2.2700 c2        1 S0D     -0.025000
     10 C1          1.0950   -0.7070    4.4540 c2        1 S0D     -0.012000
     11 N5          1.0090   -0.5630    8.8840 n2        1 S0D     -0.335000
     12 N3          0.7580    0.5310    3.8960 na        1 S0D     -0.173000
     13 N4          1.3630   -1.6280    3.4890 n2        1 S0D     -0.147000
     14 N7          0.7500    0.4070    7.9760 n3        1 S0D      0.011000
     15 H1          0.6380    1.1300    0.4980 ha        1 S0D      0.205000
     16 H2          0.5310    0.3860   -1.6650 ha        1 S0D      0.002000
     17 H3          1.1830    0.5660   -1.6530 ha        1 S0D      0.002000
     18 H4          1.2140   -0.9350    0.1070 ha        1 S0D      0.184000
     19 H5          0.4320   -1.7950    6.1700 hc        1 S0D      0.134000
     20 H6          2.1820   -1.3150    6.1910 hc        1 S0D      0.134000
     21 H7          0.1970    2.4170    7.6700 h1        1 S0D      0.109333
     22 H8         -0.5500    1.6270    9.1470 h1        1 S0D      0.109333
     23 H9          1.2180    2.1160    9.1640 h1        1 S0D      0.109333
     24 H10         0.5270    1.3420    4.4130 hn        1 S0D      0.275000
     25 C11         0.3810    1.7220    8.5300 c3        1 S0D     -0.070000
@<TRIPOS>BOND
     1    1    3 1   
     2    2    4 1   
     3    3    8 1   
     4    3   15 1   
     5    4    9 1   
     6    4   18 1   
     7    5   11 1   
     8    6    7 1   
     9    6   14 1   
    10    7   10 1   
    11    7   19 1   
    12    7   20 1   
    13    8    9 1   
    14    8   12 1   
    15    9   13 1   
    16   10   12 1   
    17   10   13 1   
    18   11   14 1   
    19   12   24 1   
    20   14   25 1   
    21   16   17 1   
    22   21   25 1   
    23   22   25 1   
    24   23   25 1   
@<TRIPOS>SUBSTRUCTURE
     1 S0D         1 TEMP              0 ****  ****    0 ROOT
