@<TRIPOS>MOLECULE
molecule
   25    27     1     0     0
SMALL
bcc


@<TRIPOS>ATOM
      1 C15          0.0000     0.0000     0.0000 ca         1 S0D      -0.118000
      2 C14          1.3870     0.0000     0.0000 ca         1 S0D      -0.145000
      3 C12         -0.6990     0.0060     1.1900 ca         1 S0D      -0.127000
      4 C13          2.0840     0.0000     1.1750 ca         1 S0D      -0.076000
      5 C8          -0.3170     0.0180     6.8220 cc         1 S0D       0.346200
      6 C6           1.9270     0.0080     6.7350 cd         1 S0D      -0.054300
      7 C2           0.7930     0.0120     5.9510 cc         1 S0D      -0.345200
      8 C9          -0.0080     0.0060     2.3920 ca         1 S0D      -0.095200
      9 C10          1.3970     0.0000     2.3930 ca         1 S0D       0.100400
     10 C1           0.7500     0.0090     4.4730 cc         1 S0D       0.525400
     11 N5           0.1290     0.0250     8.0480 nd         1 S0D      -0.510800
     12 N3          -0.3930     0.0110     3.7200 na         1 S0D      -0.264300
     13 N4           1.7990     0.0020     3.6880 nd         1 S0D      -0.617100
     14 N7           1.5280     0.0220     8.0200 na         1 S0D       0.073400
     15 H1          -0.5380    -0.0000    -0.9400 ha         1 S0D       0.131000
     16 H2           1.9230    -0.0050    -0.9410 ha         1 S0D       0.131000
     17 H3          -1.7820     0.0060     1.1850 ha         1 S0D       0.125000
     18 H4           3.1680     0.0000     1.1630 ha         1 S0D       0.140000
     19 H5          -1.3590     0.0200     6.5240 h4         1 S0D       0.045100
     20 H6           2.9510     0.0030     6.3820 h4         1 S0D       0.194000
     21 H7           1.8100     0.0430    10.0930 h1         1 S0D       0.058700
     22 H8           3.0260    -0.8630     9.1830 h1         1 S0D       0.058700
     23 H9           3.0420     0.9060     9.1620 h1         1 S0D       0.058700
     24 H10         -1.3230     0.1510     4.0620 hn         1 S0D       0.300700
     25 C11          2.4090     0.0270     9.1910 c3         1 S0D       0.061600
@<TRIPOS>BOND
     1    25    14 1
     2    14    11 1
     3    14     6 1
     4    11     5 2
     5     6     7 2
     6     5     7 1
     7     7    10 1
     8    10    13 2
     9    10    12 1
    10    13     9 1
    11    12     8 1
    12     9     8 ar
    13     9     4 ar
    14     8     3 ar
    15     4     2 ar
    16     3     1 ar
    17     2     1 ar
    18     1    15 1
    19     2    16 1
    20     3    17 1
    21     4    18 1
    22     5    19 1
    23     6    20 1
    24    25    21 1
    25    25    22 1
    26    25    23 1
    27    12    24 1
@<TRIPOS>SUBSTRUCTURE
     1 S0D         1 TEMP              0 ****  ****    0 ROOT
