@<TRIPOS>MOLECULE
S0E
   19    20     1     0     0
SMALL
bcc


@<TRIPOS>ATOM
      1 C10          0.0000     0.0000     0.0000 ca         1 S0E      -0.034000
      2 C9           1.3720     0.0000     0.0000 ca         1 S0E      -0.080000
      3 C8          -0.0300     0.0120     2.3930 ca         1 S0E       0.035000
      4 C7          -0.7060     0.0060     1.1940 ca         1 S0E      -0.234300
      5 C6           2.0870     0.0000     1.2170 ca         1 S0E       0.166400
      6 C5           1.3620    -0.0010     2.4120 ca         1 S0E      -0.059100
      7 C1           3.8520    -0.0010     2.6260 cc         1 S0E       0.504100
      8 C4          -2.2130     0.0060     1.1780 c3         1 S0E       0.645200
      9 N2           3.4210    -0.0010     1.4120 nd         1 S0E      -0.577100
     10 N11          5.1840    -0.0010     2.9890 nv         1 S0E      -0.422800
     11 F12         -2.6800     1.3250     1.1670 f          1 S0E      -0.208633
     12 F13         -2.6670    -0.6590     0.0340 f          1 S0E      -0.208633
     13 F14         -2.6910    -0.6470     2.3180 f          1 S0E      -0.208633
     14 S3           2.5040     0.0030     3.7550 ss         1 S0E      -0.232100
     15 H1          -0.5370    -0.0050    -0.9410 ha         1 S0E       0.118000
     16 H2           1.9100    -0.0050    -0.9400 ha         1 S0E       0.120000
     17 H3          -0.5830     0.0170     3.3250 ha         1 S0E       0.121000
     18 H4           5.8950    -0.0020     2.2850 hn         1 S0E       0.276300
     19 H5           5.4390     0.0000     3.9570 hn         1 S0E       0.276300
@<TRIPOS>BOND
     1     1     2 ar  
     2     1     4 ar  
     3     1    15 1   
     4     2     5 ar  
     5     2    16 1   
     6     3     4 ar  
     7     3     6 ar  
     8     3    17 1   
     9     4     8 1   
    10     5     6 ar  
    11     5     9 1   
    12     6    14 1   
    13     7     9 2   
    14     7    10 1   
    15     7    14 1   
    16     8    11 1   
    17     8    12 1   
    18     8    13 1   
    19    10    18 1   
    20    10    19 1   
@<TRIPOS>SUBSTRUCTURE
     1 S0E         1 TEMP              0 ****  ****    0 ROOT
