@<TRIPOS>MOLECULE
molecule
   19    20     1     0     0
SMALL
bcc


@<TRIPOS>ATOM
      1 C10          0.0000     0.0000     0.0000 ca         1 S0E      -0.074000
      2 C9           1.3720     0.0000     0.0000 ca         1 S0E      -0.102000
      3 C8          -0.0300     0.0120     2.3930 ca         1 S0E      -0.020000
      4 C7          -0.7060     0.0060     1.1940 ca         1 S0E      -0.197300
      5 C6           2.0870     0.0000     1.2170 ca         1 S0E       0.199400
      6 C5           1.3620    -0.0010     2.4120 ca         1 S0E      -0.081100
      7 C1           3.8520    -0.0010     2.6260 cc         1 S0E       0.687100
      8 C4          -2.2130     0.0060     1.1780 c3         1 S0E       0.678200
      9 N2           3.4210    -0.0010     1.4120 nd         1 S0E      -0.680100
     10 N11          5.1840    -0.0010     2.9890 nv         1 S0E      -0.940800
     11 F12         -2.6800     1.3250     1.1670 f          1 S0E      -0.223967
     12 F13         -2.6670    -0.6590     0.0340 f          1 S0E      -0.223967
     13 F14         -2.6910    -0.6470     2.3180 f          1 S0E      -0.223967
     14 S3           2.5040     0.0030     3.7550 ss         1 S0E      -0.158100
     15 H1          -0.5370    -0.0050    -0.9410 ha         1 S0E       0.151000
     16 H2           1.9100    -0.0050    -0.9400 ha         1 S0E       0.153000
     17 H3          -0.5830     0.0170     3.3250 ha         1 S0E       0.150000
     18 H4           5.8950    -0.0020     2.2850 hn         1 S0E       0.453300
     19 H5           5.4390     0.0000     3.9570 hn         1 S0E       0.453300
@<TRIPOS>BOND
     1    13     8 1
     2     8    11 1
     3     8    12 1
     4     8     4 1
     5     3     4 ar
     6     3     6 ar
     7     4     1 ar
     8    14     6 1
     9    14     7 1
    10     6     5 ar
    11     1     2 ar
    12     5     2 ar
    13     5     9 1
    14     7    10 1
    15     7     9 2
    16     1    15 1
    17     2    16 1
    18     3    17 1
    19    10    18 1
    20    10    19 1
@<TRIPOS>SUBSTRUCTURE
     1 S0E         1 TEMP              0 ****  ****    0 ROOT
