@<TRIPOS>MOLECULE
S0F
   23    24     1     0     0
SMALL
bcc


@<TRIPOS>ATOM
      1 C13          0.0000     0.0000     0.0000 ca         1 S0F      -0.088000
      2 C14         -0.0010    -0.0010     2.3950 ca         1 S0F      -0.088000
      3 C11          1.3830     0.0000     0.0000 ca         1 S0F      -0.081000
      4 C12          1.3810    -0.0020     2.3950 ca         1 S0F      -0.081000
      5 C5          -2.9630    -2.1580     2.2730 cc         1 S0F       0.396200
      6 C8          -0.6910    -0.0000     1.1970 ca         1 S0F      -0.088300
      7 C9           2.0740     0.0000     1.1980 ca         1 S0F       0.035100
      8 C4          -2.7020    -1.4200     1.1950 cd         1 S0F      -0.137700
      9 C1          -3.5110    -3.7050     0.7630 cd         1 S0F       0.557300
     10 C7          -2.1980     0.0010     1.1960 c3         1 S0F       0.144200
     11 N2          -3.3960    -3.3790     2.0120 nc         1 S0F      -0.642000
     12 N6          -3.9480    -4.9360     0.3000 nv         1 S0F      -0.504500
     13 S3          -3.0460    -2.3930    -0.2310 ss         1 S0F      -0.344300
     14 Br1          3.9650    -0.0020     1.1980 br         1 S0F      -0.133100
     15 H1          -0.5420     0.0000    -0.9380 ha         1 S0F       0.111000
     16 H2          -0.5430    -0.0020     3.3320 ha         1 S0F       0.111000
     17 H3           1.9240     0.0010    -0.9380 ha         1 S0F       0.116500
     18 H4           1.9220    -0.0020     3.3340 ha         1 S0F       0.116500
     19 H6          -2.5590     0.5110     2.0810 hc         1 S0F       0.025700
     20 H7          -2.5580     0.5120     0.3120 hc         1 S0F       0.025700
     21 H8          -3.6890    -5.7730     0.7840 hn         1 S0F       0.273800
     22 H9          -4.5370    -4.9870    -0.5070 hn         1 S0F       0.273800
     23 H5          -2.8320    -1.7870     3.2830 h4         1 S0F      -0.000900
@<TRIPOS>BOND
     1     1     3 ar  
     2     1     6 ar  
     3     1    15 1   
     4     2     4 ar  
     5     2     6 ar  
     6     2    16 1   
     7     3     7 ar  
     8     3    17 1   
     9     4     7 ar  
    10     4    18 1   
    11     5     8 2   
    12     5    11 1   
    13     5    23 1   
    14     6    10 1   
    15     7    14 1   
    16     8    10 1   
    17     8    13 1   
    18     9    11 2   
    19     9    12 1   
    20     9    13 1   
    21    10    19 1   
    22    10    20 1   
    23    12    21 1   
    24    12    22 1   
@<TRIPOS>SUBSTRUCTURE
     1 S0F         1 TEMP              0 ****  ****    0 ROOT
