@<TRIPOS>MOLECULE
S0G
   33    34     1     0     0
SMALL
bcc


@<TRIPOS>ATOM
      1 C3           0.0000     0.0000     0.0000 cc         1 S0G       0.030800
      2 C1           1.3680     0.0000     0.0000 cd         1 S0G      -0.403400
      3 C6          -0.6830     0.0000     1.2300 c          1 S0G       0.580700
      4 C4           1.3640     0.0010     2.3620 c          1 S0G       0.592500
      5 C16         -2.8770    -0.4500    -2.9870 c3         1 S0G      -0.025400
      6 C15         -2.0400    -1.6210    -2.4670 c3         1 S0G      -0.039900
      7 C14         -2.9740     0.6290    -1.9070 c3         1 S0G      -0.039900
      8 C12         -0.6250    -1.1300    -2.1470 c3         1 S0G       0.187300
      9 C13         -1.5690     1.1470    -1.5820 c3         1 S0G       0.187300
     10 N5           0.0190     0.0010     2.3800 ns         1 S0G      -0.097500
     11 N7          -0.7170     0.0060    -1.2190 nh         1 S0G      -0.423400
     12 N2           2.0430     0.0000     1.1990 n          1 S0G       0.044000
     13 N10          2.0630    -0.0010    -1.1870 nz         1 S0G       0.289600
     14 O9          -1.9020     0.0020     1.2540 o          1 S0G      -0.582500
     15 O8           1.9770     0.0010     3.4120 o          1 S0G      -0.633500
     16 H1          -2.4050    -0.0350    -3.8690 hc         1 S0G       0.028700
     17 H2          -3.8720    -0.8010    -3.2340 hc         1 S0G       0.028700
     18 H3          -1.9910    -2.3930    -3.2250 hc         1 S0G       0.041700
     19 H4          -2.4960    -2.0180    -1.5680 hc         1 S0G       0.041700
     20 H5          -3.4180     0.2070    -1.0140 hc         1 S0G       0.041700
     21 H6          -3.5850     1.4480    -2.2690 hc         1 S0G       0.041700
     22 H7          -0.1370    -0.8130    -3.0600 h1         1 S0G       0.017700
     23 H8          -0.0600    -1.9300    -1.6840 h1         1 S0G       0.017700
     24 H9          -1.1560     1.6460    -2.4500 h1         1 S0G       0.017700
     25 H10         -1.6210     1.8380    -0.7490 h1         1 S0G       0.017700
     26 H11          3.8600    -0.0770     2.2330 h1         1 S0G       0.041367
     27 H12          3.8720     0.9200     0.7720 h1         1 S0G       0.041367
     28 H13          3.8730    -0.8440     0.6390 h1         1 S0G       0.041367
     29 H14         -0.4650     0.0010     3.2560 hn         1 S0G       0.231500
     30 H15          2.1800    -0.9430    -1.5050 hn         1 S0G       0.215133
     31 H16          2.9610     0.4190    -1.0480 hn         1 S0G       0.215133
     32 C11          3.5070    -0.0000     1.2120 c3         1 S0G       0.038300
     33 H103         1.5540     0.5220    -1.8720 hn         1 S0G       0.215133
@<TRIPOS>BOND
     1     1     2 2   
     2     1     3 1   
     3     1    11 1   
     4     2    12 1   
     5     2    13 1   
     6     3    10 1   
     7     3    14 2   
     8     4    10 1   
     9     4    12 1   
    10     4    15 2   
    11     5     6 1   
    12     5     7 1   
    13     5    16 1   
    14     5    17 1   
    15     6     8 1   
    16     6    18 1   
    17     6    19 1   
    18     7     9 1   
    19     7    20 1   
    20     7    21 1   
    21     8    11 1   
    22     8    22 1   
    23     8    23 1   
    24     9    11 1   
    25     9    24 1   
    26     9    25 1   
    27    10    29 1   
    28    12    32 1   
    29    13    30 1   
    30    13    31 1   
    31    13    33 1   
    32    26    32 1   
    33    27    32 1   
    34    28    32 1   
@<TRIPOS>SUBSTRUCTURE
     1 S0G         1 TEMP              0 ****  ****    0 ROOT
