@<TRIPOS>MOLECULE
molecule
   15    14     1     0     0
SMALL
bcc


@<TRIPOS>ATOM
      1 P1           0.0000     0.0000     0.0000 p5         1 S0H       1.054700
      2 C2           1.8230     0.0000     0.0000 c3         1 S0H      -0.239600
      3 C3           2.3340     0.0000     1.4430 c3         1 S0H       0.179100
      4 O6           1.9550    -1.2200     2.0820 oh         1 S0H      -0.566800
      5 C1           3.8590     0.1250     1.4450 c3         1 S0H      -0.126100
      6 O13         -0.5350     1.3770     0.6410 o          1 S0H      -0.919167
      7 O14         -0.4930    -1.1420     0.8020 o          1 S0H      -0.919167
      8 O15         -0.5370    -0.1320    -1.5120 o          1 S0H      -0.919167
      9 H21          2.1840     0.8840    -0.5110 hc         1 S0H       0.025200
     10 H22          2.1840    -0.8840    -0.5110 hc         1 S0H       0.025200
     11 H3           1.9030     0.8370     1.9780 h1         1 S0H       0.039700
     12 HO6          1.9360    -1.0920     3.0160 ho         1 S0H       0.354000
     13 H11          4.1480     1.0220     0.9110 hc         1 S0H       0.004033
     14 H12          4.2150     0.1810     2.4660 hc         1 S0H       0.004033
     15 H13A         4.2920    -0.7400     0.9580 hc         1 S0H       0.004033
@<TRIPOS>BOND
     1     1     2 1
     2     1     6 1
     3     1     7 1
     4     1     8 1
     5     2     3 1
     6     2     9 1
     7     2    10 1
     8     3     4 1
     9     3     5 1
    10     3    11 1
    11     4    12 1
    12     5    13 1
    13     5    14 1
    14     5    15 1
@<TRIPOS>SUBSTRUCTURE
     1 S0H         1 TEMP              0 ****  ****    0 ROOT
