@<TRIPOS>MOLECULE
S0H
   15    14     1     0     0
SMALL
bcc


@<TRIPOS>ATOM
      1 P1          0.0170    0.1680    0.1400 p5        1 S0H      1.222700
      2 C2          1.7990   -0.1790    0.0540 c3        1 S0H     -0.307600
      3 C3          2.3650   -0.0740    1.4410 c3        1 S0H      0.195100
      4 O6          2.2370   -1.2860    2.1980 oh        1 S0H     -0.702800
      5 C1          3.8510    0.2670    1.4450 c3        1 S0H     -0.082100
      6 O13        -0.0680    1.6340    0.4950 o         1 S0H     -0.957500
      7 O14        -0.3880   -0.7810    1.2590 o         1 S0H     -0.957500
      8 O15        -0.5010   -0.1910   -1.2320 o         1 S0H     -0.957500
      9 H21         1.9330   -1.1940   -0.3690 hc        1 S0H      0.020700
     10 H22         2.2630    0.5670   -0.6220 hc        1 S0H      0.020700
     11 H3          1.7920    0.7370    1.9850 h1        1 S0H      0.047700
     12 HO6         1.2860   -1.5140    2.0850 ho        1 S0H      0.467000
     13 H11         4.4260   -0.5030    0.8790 hc        1 S0H     -0.002633
     14 H12         4.0050    1.2600    0.9620 hc        1 S0H     -0.002633
     15 H13A        4.2470    0.3040    2.4880 hc        1 S0H     -0.002633
@<TRIPOS>BOND
     1    1    2 1   
     2    1    6 1   
     3    1    7 1   
     4    1    8 1   
     5    2    3 1   
     6    2    9 1   
     7    2   10 1   
     8    3    4 1   
     9    3    5 1   
    10    3   11 1   
    11    4   12 1   
    12    5   13 1   
    13    5   14 1   
    14    5   15 1   
@<TRIPOS>SUBSTRUCTURE
     1 S0H         1 TEMP              0 ****  ****    0 ROOT
