@<TRIPOS>MOLECULE
S0I
   32    34     1     0     0
SMALL
bcc


@<TRIPOS>ATOM
      1 C18          0.0000     0.0000     0.0000 ca         1 S0I      -0.098000
      2 C16          1.3830     0.0000     0.0000 ca         1 S0I      -0.099500
      3 C17         -0.6900     0.0000     1.1970 ca         1 S0I      -0.099500
      4 C15          3.7770     1.5080     8.0500 ca         1 S0I      -0.072000
      5 C11          2.4220     1.5910     7.7920 ca         1 S0I      -0.119000
      6 C12          2.0740     0.0000     1.1970 ca         1 S0I      -0.091500
      7 C13          0.0000    -0.0060     2.3940 ca         1 S0I      -0.091500
      8 C10          4.6770     1.3930     7.0060 ca         1 S0I      -0.132000
      9 C6           1.9550     1.5540     6.4920 ca         1 S0I      -0.054000
     10 C7           1.3830     0.0010     2.3940 ca         1 S0I      -0.102300
     11 C5           4.2180     1.3560     5.7000 ca         1 S0I      -0.108400
     12 C2           2.8500     1.4320     5.4380 ca         1 S0I      -0.028400
     13 C8           4.6990     1.5780     3.3910 c          1 S0I       0.572500
     14 C4           3.2920     2.0660     3.1940 c3         1 S0I       0.051800
     15 C3           2.1370     0.0010     3.6990 c3         1 S0I       0.202100
     16 N9           5.1210     1.2460     4.6320 ns         1 S0I      -0.028100
     17 N1           2.3820     1.3860     4.1220 nh         1 S0I      -0.368000
     18 H1          -0.5420     0.0020    -0.9380 ha         1 S0I       0.102000
     19 H2           1.9240    -0.0010    -0.9380 ha         1 S0I       0.104000
     20 H3          -1.7740    -0.0020     1.1970 ha         1 S0I       0.104000
     21 H4           4.1360     1.5370     9.0720 ha         1 S0I       0.105000
     22 H5           1.7210     1.6810     8.6140 ha         1 S0I       0.107000
     23 H6           3.1570     0.0030     1.1970 ha         1 S0I       0.112500
     24 H7          -0.5410    -0.0050     3.3330 ha         1 S0I       0.112500
     25 H8           5.7390     1.3280     7.2100 ha         1 S0I       0.111000
     26 H9           0.8920     1.6200     6.2950 ha         1 S0I       0.116000
     27 H10          3.2550     3.1330     3.3760 h1         1 S0I       0.063700
     28 H11          2.9820     1.8600     2.1760 h1         1 S0I       0.063700
     29 H12          3.0830    -0.5110     3.5700 h1         1 S0I       0.021200
     30 H13          1.5500    -0.5090     4.4540 h1         1 S0I       0.021200
     31 H14          6.0980     1.1250     4.8130 hn         1 S0I       0.181500
     32 O14          5.4500     1.4800     2.4440 o          1 S0I      -0.657500
@<TRIPOS>BOND
     1     1     2 ar  
     2     1     3 ar  
     3     1    18 1   
     4     2     6 ar  
     5     2    19 1   
     6     3     7 ar  
     7     3    20 1   
     8     4     5 ar  
     9     4     8 ar  
    10     4    21 1   
    11     5     9 ar  
    12     5    22 1   
    13     6    10 ar  
    14     6    23 1   
    15     7    10 ar  
    16     7    24 1   
    17     8    11 ar  
    18     8    25 1   
    19     9    12 ar  
    20     9    26 1   
    21    10    15 1   
    22    11    12 ar  
    23    11    16 1   
    24    12    17 1   
    25    13    14 1   
    26    13    16 1   
    27    13    32 2   
    28    14    17 1   
    29    14    27 1   
    30    14    28 1   
    31    15    17 1   
    32    15    29 1   
    33    15    30 1   
    34    16    31 1   
@<TRIPOS>SUBSTRUCTURE
     1 S0I         1 TEMP              0 ****  ****    0 ROOT
