@<TRIPOS>MOLECULE
S0J
   38    40     1     0     0
SMALL
bcc


@<TRIPOS>ATOM
      1 C3           0.0000     0.0000     0.0000 cc         1 S0J      -0.146000
      2 C15          1.8140     0.0020    -2.4460 cd         1 S0J      -0.172400
      3 C4           1.4180     0.0000     0.0000 cc         1 S0J      -0.222500
      4 C14          2.3010     0.0020    -1.1940 cc         1 S0J       0.503800
      5 C2          -0.4020    -0.0010     1.2840 cd         1 S0J      -0.327600
      6 C5           1.8180     0.0000     1.3000 cd         1 S0J      -0.243600
      7 C17          4.2940     0.0030    -2.2090 cd         1 S0J       0.575300
      8 C11          1.4430     2.6340     6.0400 c3         1 S0J      -0.059400
      9 C10          0.5450     1.4550     5.6000 c3         1 S0J      -0.054400
     10 C12          2.0180     3.1850     4.7170 c3         1 S0J       0.208400
     11 C9           0.6820     1.4320     4.0620 c3         1 S0J       0.152100
     12 C1          -1.8330     0.0040     1.7590 c3         1 S0J       0.112200
     13 C6           3.2430     0.0010     1.7870 c3         1 S0J       0.099200
     14 C8           0.6920    -0.0090     3.5500 c3         1 S0J      -0.063700
     15 N19          3.6230     0.0030    -1.0970 nc         1 S0J      -0.668000
     16 N7           0.7020    -0.0060     2.0850 na         1 S0J       0.451900
     17 N18          5.6760     0.0010    -2.3090 nv         1 S0J      -0.484500
     18 O13          1.9520     2.0750     3.7950 os         1 S0J      -0.393600
     19 S16          3.1730    -0.0050    -3.5660 ss         1 S0J      -0.386300
     20 H1          -0.6370    -0.1270    -0.8670 ha         1 S0J       0.125000
     21 H3           0.8530     3.3920     6.5400 hc         1 S0J       0.022200
     22 H4           2.2420     2.2810     6.6810 hc         1 S0J       0.022200
     23 H5           0.9050     0.5260     6.0260 hc         1 S0J       0.023700
     24 H6          -0.4840     1.6370     5.8850 hc         1 S0J       0.023700
     25 H7           1.4120     4.0070     4.3580 h1         1 S0J       0.011200
     26 H8           3.0460     3.4980     4.8550 h1         1 S0J       0.011200
     27 H9          -0.1240     1.9940     3.6060 h1         1 S0J       0.028700
     28 H10         -2.0150    -0.8750     2.3660 hc         1 S0J       0.002033
     29 H11         -2.0150     0.8940     2.3490 hc         1 S0J       0.002033
     30 H12         -2.4980    -0.0050     0.9040 hc         1 S0J       0.002033
     31 H13          3.7780    -0.8280     1.3390 hc         1 S0J       0.014033
     32 H14          3.7200     0.9320     1.5070 hc         1 S0J       0.014033
     33 H15          3.2570    -0.1020     2.8650 hc         1 S0J       0.014033
     34 H16         -0.1920    -0.5240     3.9040 h1         1 S0J       0.045700
     35 H17          1.5770    -0.5160     3.9160 h1         1 S0J       0.045700
     36 H18          6.1120    -0.0060    -3.2100 hn         1 S0J       0.271300
     37 H19          6.2380     0.0080    -1.4810 hn         1 S0J       0.271300
     38 H2           0.7660     0.0000    -2.7190 h4         1 S0J       0.165000
@<TRIPOS>BOND
     1     1     3 1   
     2     1     5 2   
     3     1    20 1   
     4     2     4 2   
     5     2    19 1   
     6     2    38 1   
     7     3     4 1   
     8     3     6 2   
     9     4    15 1   
    10     5    12 1   
    11     5    16 1   
    12     6    13 1   
    13     6    16 1   
    14     7    15 2   
    15     7    17 1   
    16     7    19 1   
    17     8     9 1   
    18     8    10 1   
    19     8    21 1   
    20     8    22 1   
    21     9    11 1   
    22     9    23 1   
    23     9    24 1   
    24    10    18 1   
    25    10    25 1   
    26    10    26 1   
    27    11    14 1   
    28    11    18 1   
    29    11    27 1   
    30    12    28 1   
    31    12    29 1   
    32    12    30 1   
    33    13    31 1   
    34    13    32 1   
    35    13    33 1   
    36    14    16 1   
    37    14    34 1   
    38    14    35 1   
    39    17    36 1   
    40    17    37 1   
@<TRIPOS>SUBSTRUCTURE
     1 S0J         1 TEMP              0 ****  ****    0 ROOT
