@<TRIPOS>MOLECULE
S0K
   36    38     1     0     0
SMALL
bcc


@<TRIPOS>ATOM
      1 C9           0.0000     0.0000     0.0000 ca         1 S0K      -0.110000
      2 C11          1.3830     0.0000     0.0000 ca         1 S0K      -0.077000
      3 C4          -0.6950     0.0050     1.1950 ca         1 S0K      -0.114000
      4 C6           2.0790     0.0000     1.1950 ca         1 S0K      -0.117000
      5 C17          5.4720     0.9060     5.0400 cc         1 S0K      -0.065000
      6 C19          5.9820     0.7070     6.2500 cd         1 S0K      -0.015100
      7 C18          3.6580    -0.1830     6.0390 cd         1 S0K      -0.010100
      8 C14          4.1280     0.3980     4.9020 cc         1 S0K      -0.180600
      9 C1          -0.0050     0.0120     2.3990 ca         1 S0K      -0.035400
     10 C2           1.3890     0.0010     2.3990 ca         1 S0K      -0.063400
     11 C10          3.3440     0.5020     3.6600 c          1 S0K       0.596700
     12 C7          -1.5640    -1.1710     3.7270 c3         1 S0K       0.105300
     13 C8          -1.4980     1.2490     3.7530 c3         1 S0K       0.105300
     14 C12         -2.2660    -1.1540     5.0880 c3         1 S0K       0.213400
     15 C13         -2.2010     1.2400     5.1140 c3         1 S0K       0.213400
     16 N3          -0.7070     0.0180     3.6090 nh         1 S0K      -0.406000
     17 N5           2.0920     0.0070     3.6110 ns         1 S0K      -0.010100
     18 O15          3.8280     1.0350     2.6790 o          1 S0K      -0.638100
     19 O16         -3.0050     0.0630     5.2230 os         1 S0K      -0.409600
     20 S20          4.8280    -0.1260     7.2770 ss         1 S0K      -0.226800
     21 H1          -0.5400    -0.0020    -0.9390 ha         1 S0K       0.104000
     22 H2           1.9230    -0.0020    -0.9390 ha         1 S0K       0.105000
     23 H3          -1.7780     0.0100     1.1920 ha         1 S0K       0.112000
     24 H4           3.1620    -0.0040     1.1910 ha         1 S0K       0.157000
     25 H6           6.9750     1.0120     6.5590 h4         1 S0K       0.152000
     26 H7           2.6750    -0.6250     6.1430 h4         1 S0K       0.150000
     27 H8          -0.9560    -2.0630     3.6460 h1         1 S0K       0.023450
     28 H9          -2.3070    -1.1600     2.9380 h1         1 S0K       0.023450
     29 H10         -0.8420     2.1080     3.6910 h1         1 S0K       0.023450
     30 H11         -2.2400     1.2950     2.9650 h1         1 S0K       0.023450
     31 H12         -1.5250    -1.2150     5.8760 h1         1 S0K       0.011950
     32 H13         -2.9430    -1.9960     5.1540 h1         1 S0K       0.011950
     33 H14         -2.8310     2.1170     5.1990 h1         1 S0K       0.011950
     34 H15         -1.4580     1.2440     5.9030 h1         1 S0K       0.011950
     35 H16          1.6810    -0.3950     4.4300 hn         1 S0K       0.180500
     36 H5           6.0090     1.4020     4.2400 ha         1 S0K       0.142000
@<TRIPOS>BOND
     1     1     2 ar  
     2     1     3 ar  
     3     1    21 1   
     4     2     4 ar  
     5     2    22 1   
     6     3     9 ar  
     7     3    23 1   
     8     4    10 ar  
     9     4    24 1   
    10     5     6 2   
    11     5     8 1   
    12     5    36 1   
    13     6    20 1   
    14     6    25 1   
    15     7     8 2   
    16     7    20 1   
    17     7    26 1   
    18     8    11 1   
    19     9    10 ar  
    20     9    16 1   
    21    10    17 1   
    22    11    17 1   
    23    11    18 2   
    24    12    14 1   
    25    12    16 1   
    26    12    27 1   
    27    12    28 1   
    28    13    15 1   
    29    13    16 1   
    30    13    29 1   
    31    13    30 1   
    32    14    19 1   
    33    14    31 1   
    34    14    32 1   
    35    15    19 1   
    36    15    33 1   
    37    15    34 1   
    38    17    35 1   
@<TRIPOS>SUBSTRUCTURE
     1 S0K         1 TEMP              0 ****  ****    0 ROOT
