@<TRIPOS>MOLECULE
molecule
   36    38     1     0     0
SMALL
bcc


@<TRIPOS>ATOM
      1 C9           0.0000     0.0000     0.0000 ca         1 S0K      -0.143000
      2 C11          1.3830     0.0000     0.0000 ca         1 S0K      -0.111000
      3 C4          -0.6950     0.0050     1.1950 ca         1 S0K      -0.142000
      4 C6           2.0790     0.0000     1.1950 ca         1 S0K      -0.136000
      5 C17          5.4720     0.9060     5.0400 cc         1 S0K      -0.099000
      6 C19          5.9820     0.7070     6.2500 cd         1 S0K      -0.096100
      7 C18          3.6580    -0.1830     6.0390 cd         1 S0K      -0.085100
      8 C14          4.1280     0.3980     4.9020 cc         1 S0K      -0.178600
      9 C1          -0.0050     0.0120     2.3990 ca         1 S0K       0.036600
     10 C2           1.3890     0.0010     2.3990 ca         1 S0K       0.085600
     11 C10          3.3440     0.5020     3.6600 c          1 S0K       0.690700
     12 C7          -1.5640    -1.1710     3.7270 c3         1 S0K       0.128800
     13 C8          -1.4980     1.2490     3.7530 c3         1 S0K       0.128800
     14 C12         -2.2660    -1.1540     5.0880 c3         1 S0K       0.137400
     15 C13         -2.2010     1.2400     5.1140 c3         1 S0K       0.137400
     16 N3          -0.7070     0.0180     3.6090 nh         1 S0K      -0.623000
     17 N5           2.0920     0.0070     3.6110 ns         1 S0K      -0.456100
     18 O15          3.8280     1.0350     2.6790 o          1 S0K      -0.599100
     19 O16         -3.0050     0.0630     5.2230 os         1 S0K      -0.423600
     20 S20          4.8280    -0.1260     7.2770 ss         1 S0K      -0.091800
     21 H1          -0.5400    -0.0020    -0.9390 ha         1 S0K       0.130000
     22 H2           1.9230    -0.0020    -0.9390 ha         1 S0K       0.135000
     23 H3          -1.7780     0.0100     1.1920 ha         1 S0K       0.134000
     24 H4           3.1620    -0.0040     1.1910 ha         1 S0K       0.176000
     25 H6           6.9750     1.0120     6.5590 h4         1 S0K       0.176000
     26 H7           2.6750    -0.6250     6.1430 h4         1 S0K       0.170000
     27 H8          -0.9560    -2.0630     3.6460 h1         1 S0K       0.049450
     28 H9          -2.3070    -1.1600     2.9380 h1         1 S0K       0.049450
     29 H10         -0.8420     2.1080     3.6910 h1         1 S0K       0.049450
     30 H11         -2.2400     1.2950     2.9650 h1         1 S0K       0.049450
     31 H12         -1.5250    -1.2150     5.8760 h1         1 S0K       0.052700
     32 H13         -2.9430    -1.9960     5.1540 h1         1 S0K       0.052700
     33 H14         -2.8310     2.1170     5.1990 h1         1 S0K       0.052700
     34 H15         -1.4580     1.2440     5.9030 h1         1 S0K       0.052700
     35 H16          1.6810    -0.3950     4.4300 hn         1 S0K       0.336500
     36 H5           6.0090     1.4020     4.2400 ha         1 S0K       0.174000
@<TRIPOS>BOND
     1    13    15 1
     2    13    16 1
     3    19    15 1
     4    19    14 1
     5     3     1 ar
     6     3     9 ar
     7     1     2 ar
     8    12    16 1
     9    12    14 1
    10    16     9 1
    11     9    10 ar
    12     2     4 ar
    13    18    11 2
    14    10     4 ar
    15    10    17 1
    16    11    17 1
    17    11     8 1
    18     8     7 2
    19     8     5 1
    20     7    20 1
    21     5     6 2
    22    20     6 1
    23     1    21 1
    24     2    22 1
    25     3    23 1
    26     4    24 1
    27     5    36 1
    28     6    25 1
    29     7    26 1
    30    12    27 1
    31    12    28 1
    32    13    29 1
    33    13    30 1
    34    14    31 1
    35    14    32 1
    36    15    33 1
    37    15    34 1
    38    17    35 1
@<TRIPOS>SUBSTRUCTURE
     1 S0K         1 TEMP              0 ****  ****    0 ROOT
