@<TRIPOS>MOLECULE
S0L
   52    57     1     0     0
SMALL
bcc


@<TRIPOS>ATOM
      1 N01          0.0000     0.0000     0.0000 ns         1 S0L      -0.008100
      2 C02          1.3980     0.0000     0.0000 ca         1 S0L      -0.094400
      3 C03          2.0910     0.0000     1.2010 ca         1 S0L      -0.068000
      4 C04          3.4850     0.0000     1.1970 ca         1 S0L      -0.084500
      5 C05          4.1740     0.0020    -0.0180 ca         1 S0L      -0.147000
      6 C06          3.4760     0.0020    -1.2080 ca         1 S0L      -0.079000
      7 C07          2.0940    -0.0050    -1.2030 ca         1 S0L      -0.125000
      8 C08          5.7830     0.2210     3.9840 cc         1 S0L       0.182400
      9 N09          4.6920    -0.2350     4.5360 nd         1 S0L      -0.322000
     10 N10          3.7710    -0.3670     3.6490 nd         1 S0L      -0.310000
     11 C11          4.2310     0.0000     2.4740 cc         1 S0L       0.239000
     12 N12          5.5300     0.3930     2.6580 na         1 S0L       0.194300
     13 C13         -0.6740    -0.6740     0.9510 c          1 S0L       0.465600
     14 O14         -0.0690    -1.2230     1.8520 o          1 S0L      -0.621100
     15 C15          6.4560     0.8920     1.6390 cx         1 S0L      -0.170000
     16 C16         -2.1530    -0.7490     0.9000 ca         1 S0L       0.340800
     17 C17         -2.8420    -1.4430     1.8900 ca         1 S0L      -0.167300
     18 N18         -2.8080    -0.1480    -0.0850 nb         1 S0L      -0.583000
     19 C19         -4.2330    -1.5030     1.8280 ca         1 S0L      -0.134200
     20 C20          7.7600     1.5300     2.1200 cx         1 S0L      -0.067900
     21 C21          7.7800     0.1490     1.4610 cx         1 S0L      -0.067900
     22 C22         -4.8760    -0.8620     0.7720 ca         1 S0L      -0.219300
     23 C23         -4.1210    -0.1880    -0.1710 ca         1 S0L       0.423200
     24 N24         -4.9650    -2.1900     2.8030 na         1 S0L       0.406000
     25 C25         -4.4600    -2.8520     3.8760 cc         1 S0L       0.221400
     26 N26         -5.4510    -3.3640     4.5530 nd         1 S0L      -0.589000
     27 C27         -6.6080    -3.0560     3.9500 cd         1 S0L       0.349600
     28 C28         -6.3300    -2.3180     2.8580 cc         1 S0L      -0.446600
     29 C29         -7.9830    -3.4590     4.4160 cx         1 S0L      -0.110000
     30 C30         -8.7580    -2.4590     5.2770 cx         1 S0L      -0.081900
     31 C31         -9.1780    -2.7070     3.8260 cx         1 S0L      -0.081900
     32 H1          -0.5000     0.5190    -0.6950 hn         1 S0L       0.185500
     33 H2           1.5500    -0.0010     2.1400 ha         1 S0L       0.166000
     34 H3           5.2570     0.0040    -0.0260 ha         1 S0L       0.114000
     35 H4           4.0120     0.0010    -2.1490 ha         1 S0L       0.103000
     36 H5           1.5510    -0.0040    -2.1410 ha         1 S0L       0.107000
     37 H7           6.0510     1.3200     0.7300 h1         1 S0L       0.102700
     38 H8          -2.3060    -1.9290     2.6960 ha         1 S0L       0.153000
     39 H9           8.1360     2.3430     1.5120 hc         1 S0L       0.056950
     40 H10          7.9090     1.5370     3.1940 hc         1 S0L       0.056950
     41 H11          8.1680     0.1190     0.4500 hc         1 S0L       0.056950
     42 H12          7.9400    -0.6870     2.1310 hc         1 S0L       0.056950
     43 H13         -5.9560    -0.8880     0.6920 ha         1 S0L       0.129000
     44 H14         -4.6180     0.3140    -0.9930 h4         1 S0L      -0.012900
     45 H15         -3.4100    -2.9400     4.1280 h5         1 S0L       0.035100
     46 H16         -7.0460    -1.9110     2.1540 h4         1 S0L       0.162000
     47 H17         -8.1720    -4.5000     4.6490 hc         1 S0L       0.065700
     48 H18         -9.4040    -2.8930     6.0310 hc         1 S0L       0.045700
     49 H19         -8.2580    -1.5160     5.4640 hc         1 S0L       0.045700
     50 H20        -10.0790    -3.2930     3.6940 hc         1 S0L       0.045700
     51 H21         -8.9340    -1.9160     3.1270 hc         1 S0L       0.045700
     52 H6           6.7180     0.4300     4.4900 h5         1 S0L       0.033100
@<TRIPOS>BOND
     1     1     2 1   
     2     1    13 1   
     3     1    32 1   
     4     2     3 ar  
     5     2     7 ar  
     6     3     4 ar  
     7     3    33 1   
     8     4     5 ar  
     9     4    11 1   
    10     5     6 ar  
    11     5    34 1   
    12     6     7 ar  
    13     6    35 1   
    14     7    36 1   
    15     8     9 2   
    16     8    12 1   
    17     8    52 1   
    18     9    10 1   
    19    10    11 2   
    20    11    12 1   
    21    12    15 1   
    22    13    14 2   
    23    13    16 1   
    24    15    20 1   
    25    15    21 1   
    26    15    37 1   
    27    16    17 ar  
    28    16    18 ar  
    29    17    19 ar  
    30    17    38 1   
    31    18    23 ar  
    32    19    22 ar  
    33    19    24 1   
    34    20    21 1   
    35    20    39 1   
    36    20    40 1   
    37    21    41 1   
    38    21    42 1   
    39    22    23 ar  
    40    22    43 1   
    41    23    44 1   
    42    24    25 1   
    43    24    28 1   
    44    25    26 2   
    45    25    45 1   
    46    26    27 1   
    47    27    28 2   
    48    27    29 1   
    49    28    46 1   
    50    29    30 1   
    51    29    31 1   
    52    29    47 1   
    53    30    31 1   
    54    30    48 1   
    55    30    49 1   
    56    31    50 1   
    57    31    51 1   
@<TRIPOS>SUBSTRUCTURE
     1 S0L         1 TEMP              0 ****  ****    0 ROOT
