@<TRIPOS>MOLECULE
molecule
   52    57     1     0     0
SMALL
bcc


@<TRIPOS>ATOM
      1 N01          0.0000     0.0000     0.0000 ns         1 S0L      -0.458100
      2 C02          1.3980     0.0000     0.0000 ca         1 S0L       0.051600
      3 C03          2.0910     0.0000     1.2010 ca         1 S0L      -0.088000
      4 C04          3.4850     0.0000     1.1970 ca         1 S0L      -0.097500
      5 C05          4.1740     0.0020    -0.0180 ca         1 S0L      -0.149000
      6 C06          3.4760     0.0020    -1.2080 ca         1 S0L      -0.114000
      7 C07          2.0940    -0.0050    -1.2030 ca         1 S0L      -0.149000
      8 C08          5.7830     0.2210     3.9840 cc         1 S0L       0.351400
      9 N09          4.6920    -0.2350     4.5360 nd         1 S0L      -0.351000
     10 N10          3.7710    -0.3670     3.6490 nd         1 S0L      -0.336000
     11 C11          4.2310     0.0000     2.4740 cc         1 S0L       0.423000
     12 N12          5.5300     0.3930     2.6580 na         1 S0L      -0.294700
     13 C13         -0.6740    -0.6740     0.9510 c          1 S0L       0.573600
     14 O14         -0.0690    -1.2230     1.8520 o          1 S0L      -0.577100
     15 C15          6.4560     0.8920     1.6390 cx         1 S0L      -0.034000
     16 C16         -2.1530    -0.7490     0.9000 ca         1 S0L       0.398800
     17 C17         -2.8420    -1.4430     1.8900 ca         1 S0L      -0.214300
     18 N18         -2.8080    -0.1480    -0.0850 nb         1 S0L      -0.702000
     19 C19         -4.2330    -1.5030     1.8280 ca         1 S0L       0.048800
     20 C20          7.7600     1.5300     2.1200 cx         1 S0L      -0.136900
     21 C21          7.7800     0.1490     1.4610 cx         1 S0L      -0.136900
     22 C22         -4.8760    -0.8620     0.7720 ca         1 S0L      -0.259300
     23 C23         -4.1210    -0.1880    -0.1710 ca         1 S0L       0.441200
     24 N24         -4.9650    -2.1900     2.8030 na         1 S0L      -0.118000
     25 C25         -4.4600    -2.8520     3.8760 cd         1 S0L       0.417400
     26 N26         -5.4510    -3.3640     4.5530 nc         1 S0L      -0.674000
     27 C27         -6.6080    -3.0560     3.9500 cc         1 S0L       0.368600
     28 C28         -6.3300    -2.3180     2.8580 cd         1 S0L      -0.268600
     29 C29         -7.9830    -3.4590     4.4160 cx         1 S0L      -0.146000
     30 C30         -8.7580    -2.4590     5.2770 cx         1 S0L      -0.133400
     31 C31         -9.1780    -2.7070     3.8260 cx         1 S0L      -0.133400
     32 H1          -0.5000     0.5190    -0.6950 hn         1 S0L       0.346500
     33 H2           1.5500    -0.0010     2.1400 ha         1 S0L       0.188000
     34 H3           5.2570     0.0040    -0.0260 ha         1 S0L       0.134000
     35 H4           4.0120     0.0010    -2.1490 ha         1 S0L       0.134000
     36 H5           1.5510    -0.0040    -2.1410 ha         1 S0L       0.134000
     37 H7           6.0510     1.3200     0.7300 h1         1 S0L       0.121700
     38 H8          -2.3060    -1.9290     2.6960 ha         1 S0L       0.175000
     39 H9           8.1360     2.3430     1.5120 hc         1 S0L       0.087200
     40 H10          7.9090     1.5370     3.1940 hc         1 S0L       0.087200
     41 H11          8.1680     0.1190     0.4500 hc         1 S0L       0.087200
     42 H12          7.9400    -0.6870     2.1310 hc         1 S0L       0.087200
     43 H13         -5.9560    -0.8880     0.6920 ha         1 S0L       0.152000
     44 H14         -4.6180     0.3140    -0.9930 h4         1 S0L       0.033100
     45 H15         -3.4100    -2.9400     4.1280 h5         1 S0L       0.077100
     46 H16         -7.0460    -1.9110     2.1540 h4         1 S0L       0.179000
     47 H17         -8.1720    -4.5000     4.6490 hc         1 S0L       0.097700
     48 H18         -9.4040    -2.8930     6.0310 hc         1 S0L       0.075700
     49 H19         -8.2580    -1.5160     5.4640 hc         1 S0L       0.075700
     50 H20        -10.0790    -3.2930     3.6940 hc         1 S0L       0.075700
     51 H21         -8.9340    -1.9160     3.1270 hc         1 S0L       0.075700
     52 H6           6.7180     0.4300     4.4900 h5         1 S0L       0.070100
@<TRIPOS>BOND
     1    31    30 1
     2    31    29 1
     3    30    29 1
     4    29    27 1
     5    26    27 1
     6    26    25 2
     7    27    28 2
     8    25    24 1
     9    28    24 1
    10    24    19 1
    11    19    17 ar
    12    19    22 ar
    13    17    16 ar
    14    22    23 ar
    15    14    13 2
    16    16    13 1
    17    16    18 ar
    18    13     1 1
    19    23    18 ar
    20     1     2 1
    21     7     2 ar
    22     7     6 ar
    23     2     3 ar
    24     6     5 ar
    25     3     4 ar
    26     5     4 ar
    27     4    11 1
    28    20    15 1
    29    20    21 1
    30    11    12 1
    31    11    10 2
    32    15    12 1
    33    15    21 1
    34    12     8 1
    35    10     9 1
    36     8     9 2
    37     1    32 1
    38     3    33 1
    39     5    34 1
    40     6    35 1
    41     7    36 1
    42     8    52 1
    43    15    37 1
    44    17    38 1
    45    20    39 1
    46    20    40 1
    47    21    41 1
    48    21    42 1
    49    22    43 1
    50    23    44 1
    51    25    45 1
    52    28    46 1
    53    29    47 1
    54    30    48 1
    55    30    49 1
    56    31    50 1
    57    31    51 1
@<TRIPOS>SUBSTRUCTURE
     1 S0L         1 TEMP              0 ****  ****    0 ROOT
