@<TRIPOS>MOLECULE
molecule
   20    20     1     0     0
SMALL
bcc


@<TRIPOS>ATOM
      1 O1           0.0000     0.0000     0.0000 o          1 S0W      -0.852800
      2 C2           1.3420     0.0000     0.0000 c          1 S0W       0.890600
      3 O3           1.9460     0.0000     1.0470 o          1 S0W      -0.852800
      4 C4           2.0950     0.0010    -1.3040 c3         1 S0W      -0.177400
      5 C5           3.5990     0.0020    -1.0250 c3         1 S0W      -0.030100
      6 C6           4.3530     0.0020    -2.3300 ca         1 S0W      -0.048300
      7 C7           4.6980     1.2000    -2.9270 ca         1 S0W      -0.126000
      8 C8           5.3900     1.2010    -4.1240 ca         1 S0W      -0.126500
      9 C9           5.7370     0.0040    -4.7240 ca         1 S0W       0.005400
     10 Cl1          6.6060     0.0050    -6.2270 cl         1 S0W      -0.150400
     11 C11          5.3910    -1.1950    -4.1250 ca         1 S0W      -0.126500
     12 C12          4.7050    -1.1940    -2.9250 ca         1 S0W      -0.126000
     13 H41C         1.8340    -0.8830    -1.8730 hc         1 S0W       0.032700
     14 H42C         1.8330     0.8860    -1.8720 hc         1 S0W       0.032700
     15 H51C         3.8620    -0.8820    -0.4570 hc         1 S0W       0.057700
     16 H52C         3.8610     0.8860    -0.4570 hc         1 S0W       0.057700
     17 H7           4.4270     2.1380    -2.4580 ha         1 S0W       0.140000
     18 H12          4.4340    -2.1320    -2.4560 ha         1 S0W       0.140000
     19 H8           5.6600     2.1400    -4.5920 ha         1 S0W       0.129000
     20 H11          5.6640    -2.1330    -4.5930 ha         1 S0W       0.129000
@<TRIPOS>BOND
     1     1     2 1
     2     2     3 1
     3     2     4 1
     4     4     5 1
     5     5     6 1
     6     6     7 ar
     7     6    12 ar
     8     7     8 ar
     9     8     9 ar
    10     9    10 1
    11     9    11 ar
    12    11    12 ar
    13     4    13 1
    14     4    14 1
    15     5    15 1
    16     5    16 1
    17     7    17 1
    18    12    18 1
    19     8    19 1
    20    11    20 1
@<TRIPOS>SUBSTRUCTURE
     1 S0W         1 TEMP              0 ****  ****    0 ROOT
