@<TRIPOS>MOLECULE
S10
   33    32     1     0     0
SMALL
bcc


@<TRIPOS>ATOM
      1 O15          0.0000     0.0000     0.0000 o          1 S10      -0.657000
      2 C10          1.2150     0.0000     0.0000 c          1 S10       0.685600
      3 O11          1.8890     0.0000     1.1650 os         1 S10      -0.438900
      4 C12          1.1630     0.0000     2.4230 c3         1 S10       0.251900
      5 C13          2.1590    -0.0000     3.5850 c3         1 S10      -0.005100
      6 N9           1.8890    -0.0000    -1.1680 ns         1 S10      -0.182400
      7 C8           1.1550    -0.0000    -2.4370 c3         1 S10       0.070500
      8 C7           2.1500    -0.0000    -3.6000 c3         1 S10      -0.058400
      9 C6           1.3840    -0.0000    -4.9240 c3         1 S10       0.070500
     10 N5           2.3350    -0.0000    -6.0380 ns         1 S10      -0.182400
     11 C4           1.8860    -0.0000    -7.3090 c          1 S10       0.685600
     12 O14          0.6910    -0.0000    -7.5300 o          1 S10      -0.657000
     13 O3           2.7610    -0.0000    -8.3330 os         1 S10      -0.438900
     14 C2           2.2760    -0.0000    -9.7020 c3         1 S10       0.251900
     15 C1           3.4660     0.0000   -10.6630 c3         1 S10      -0.005100
     16 H121         0.5410     0.8850     2.4810 h1         1 S10       0.007700
     17 H122         0.5410    -0.8850     2.4810 h1         1 S10       0.007700
     18 H131         2.7810    -0.8850     3.5270 hc         1 S10       0.010367
     19 H132         2.7810     0.8850     3.5270 hc         1 S10       0.010367
     20 H133         1.6180    -0.0000     4.5240 hc         1 S10       0.010367
     21 H9           2.8890     0.0000    -1.1690 hn         1 S10       0.175000
     22 H8C1         0.5330     0.8850    -2.4940 h1         1 S10       0.030700
     23 H8C2         0.5330    -0.8850    -2.4940 h1         1 S10       0.030700
     24 H7C1         2.7730    -0.8850    -3.5430 hc         1 S10       0.020700
     25 H7C2         2.7730     0.8850    -3.5430 hc         1 S10       0.020700
     26 H6C1         0.7610    -0.8850    -4.9810 h1         1 S10       0.030700
     27 H6C2         0.7610     0.8850    -4.9810 h1         1 S10       0.030700
     28 H5           3.3190     0.0000    -5.8550 hn         1 S10       0.175000
     29 H2C1         1.6740     0.8850    -9.8720 h1         1 S10       0.007700
     30 H2C2         1.6740    -0.8850    -9.8720 h1         1 S10       0.007700
     31 H1C1         4.0670     0.8850   -10.4930 hc         1 S10       0.010367
     32 H1C2         4.0670    -0.8850   -10.4930 hc         1 S10       0.010367
     33 H1C3         3.1050    -0.0000   -11.6840 hc         1 S10       0.010367
@<TRIPOS>BOND
     1     1     2 2   
     2     2     3 1   
     3     2     6 1   
     4     3     4 1   
     5     4     5 1   
     6     4    16 1   
     7     4    17 1   
     8     5    18 1   
     9     5    19 1   
    10     5    20 1   
    11     6     7 1   
    12     6    21 1   
    13     7     8 1   
    14     7    22 1   
    15     7    23 1   
    16     8     9 1   
    17     8    24 1   
    18     8    25 1   
    19     9    10 1   
    20     9    26 1   
    21     9    27 1   
    22    10    11 1   
    23    10    28 1   
    24    11    12 2   
    25    11    13 1   
    26    13    14 1   
    27    14    15 1   
    28    14    29 1   
    29    14    30 1   
    30    15    31 1   
    31    15    32 1   
    32    15    33 1   
@<TRIPOS>SUBSTRUCTURE
     1 S10         1 TEMP              0 ****  ****    0 ROOT
