@<TRIPOS>MOLECULE
S11
   50    52     1     0     0
SMALL
bcc


@<TRIPOS>ATOM
      1 N1           0.0000     0.0000     0.0000 nc         1 S11      -0.556000
      2 C2           1.3410     0.0000     0.0000 cc         1 S11       0.355600
      3 C3           1.7630     0.0000     1.2880 cd         1 S11      -0.271700
      4 N4           0.6370     0.0100     2.0700 na         1 S11       0.354100
      5 C5          -0.4340     0.0060     1.2300 cd         1 S11       0.134800
      6 C6           3.9950    -1.5090     1.1350 ca         1 S11       0.058900
      7 S1           3.4320     0.0010     1.8480 ss         1 S11      -0.208800
      8 C7           5.3070    -1.9240     1.3270 ca         1 S11      -0.110000
      9 C8           5.7440    -3.1080     0.7670 ca         1 S11      -0.019600
     10 Cl1          7.3830    -3.6280     1.0080 cl         1 S11       0.005100
     11 C9           4.8780    -3.8820     0.0150 ca         1 S11      -0.087000
     12 C10          3.5700    -3.4720    -0.1770 ca         1 S11      -0.019600
     13 Cl2          2.4860    -4.4450    -1.1210 cl         1 S11       0.005100
     14 C11          3.1250    -2.2900     0.3850 ca         1 S11      -0.110000
     15 C12          2.2250    -0.0060    -1.2200 c3         1 S11      -0.081000
     16 C13          1.9410    -1.2580    -2.0500 c3         1 S11      -0.001600
     17 C14          1.9420     1.2400    -2.0610 c3         1 S11      -0.001600
     18 C15          0.5950     0.0180     3.5340 c3         1 S11      -0.001400
     19 C16          0.5800    -1.4020     4.0430 ca         1 S11      -0.093300
     20 C21          1.7640    -2.0700     4.3160 ca         1 S11      -0.211800
     21 C20          1.7110    -3.3700     4.7820 ca         1 S11       0.411200
     22 N19          0.5540    -3.9730     4.9660 nb         1 S11      -0.547000
     23 C18         -0.5910    -3.3690     4.7160 ca         1 S11       0.411200
     24 C17         -0.6180    -2.0670     4.2540 ca         1 S11      -0.211800
     25 CA          -1.8810     0.0070     1.6510 c3         1 S11       0.263100
     26 O22         -2.3450    -1.3610     1.7920 os         1 S11      -0.386900
     27 C23         -3.6160    -1.6050     2.1640 c          1 S11       0.435100
     28 N24         -4.0460    -2.8750     2.2940 nz         1 S11       0.254600
     29 O25         -4.3740    -0.6820     2.3800 o          1 S11      -0.453000
     30 H7           5.9950    -1.3030     1.8870 ha         1 S11       0.142000
     31 H9           5.2230    -4.8110    -0.4230 ha         1 S11       0.134000
     32 H11          2.1010    -1.9700     0.2350 ha         1 S11       0.142000
     33 H12          3.2640    -0.0050    -0.9130 hc         1 S11       0.052700
     34 H131         1.4580    -0.9740    -2.9780 hc         1 S11       0.013367
     35 H132         2.8720    -1.7650    -2.2690 hc         1 S11       0.013367
     36 H133         1.2900    -1.9210    -1.4930 hc         1 S11       0.013367
     37 H141         0.9220     1.2050    -2.4260 hc         1 S11       0.013367
     38 H142         2.0770     2.1260    -1.4530 hc         1 S11       0.013367
     39 H143         2.6250     1.2710    -2.9020 hc         1 S11       0.013367
     40 H151         1.4700     0.5300     3.9180 h1         1 S11       0.058700
     41 H152        -0.2990     0.5310     3.8670 h1         1 S11       0.058700
     42 H21          2.7180    -1.5790     4.1670 ha         1 S11       0.114000
     43 H20          2.6310    -3.9000     4.9980 h4         1 S11      -0.020900
     44 H18         -1.5230    -3.8970     4.8810 h4         1 S11      -0.020900
     45 H17         -1.5620    -1.5760     4.0500 ha         1 S11       0.114000
     46 HA1         -2.4750     0.5140     0.9000 h1         1 S11       0.038700
     47 HA2         -1.9810     0.5220     2.5990 h1         1 S11       0.038700
     48 H241        -4.9370    -2.9730     1.8490 hn         1 S11       0.250133
     49 H242        -3.3890    -3.4960     1.8650 hn         1 S11       0.250133
     50 H243        -4.1320    -3.1000     3.2660 hn         1 S11       0.250133
@<TRIPOS>BOND
     1     1     2 1   
     2     1     5 2   
     3     2     3 2   
     4     2    15 1   
     5     3     4 1   
     6     3     7 1   
     7     4     5 1   
     8     4    18 1   
     9     5    25 1   
    10     6     7 1   
    11     6     8 ar  
    12     6    14 ar  
    13     8     9 ar  
    14     8    30 1   
    15     9    10 1   
    16     9    11 ar  
    17    11    12 ar  
    18    11    31 1   
    19    12    13 1   
    20    12    14 ar  
    21    14    32 1   
    22    15    16 1   
    23    15    17 1   
    24    15    33 1   
    25    16    34 1   
    26    16    35 1   
    27    16    36 1   
    28    17    37 1   
    29    17    38 1   
    30    17    39 1   
    31    18    19 1   
    32    18    40 1   
    33    18    41 1   
    34    19    20 ar  
    35    19    24 ar  
    36    20    21 ar  
    37    20    42 1   
    38    21    22 ar  
    39    21    43 1   
    40    22    23 ar  
    41    23    24 ar  
    42    23    44 1   
    43    24    45 1   
    44    25    26 1   
    45    25    46 1   
    46    25    47 1   
    47    26    27 1   
    48    27    28 1   
    49    27    29 2   
    50    28    48 1   
    51    28    49 1   
    52    28    50 1   
@<TRIPOS>SUBSTRUCTURE
     1 S11         1 TEMP              0 ****  ****    0 ROOT
