@<TRIPOS>MOLECULE
molecule
   43    45     1     0     0
SMALL
bcc


@<TRIPOS>ATOM
      1 C10          0.0000     0.0000     0.0000 ca         1 S13      -0.105500
      2 C11          1.3820     0.0000     0.0000 ca         1 S13      -0.133500
      3 C12          2.0740     0.0000     1.1970 ca         1 S13      -0.078300
      4 C15          3.5810    -0.0000     1.1960 c3         1 S13      -0.048800
      5 C13          1.3820     0.0000     2.3950 ca         1 S13      -0.133500
      6 C14         -0.0000     0.0000     2.3950 ca         1 S13      -0.105500
      7 C9          -0.6910     0.0000     1.1970 ca         1 S13      -0.089300
      8 C8          -2.1990     0.0000     1.1970 c3         1 S13       0.168800
      9 C7          -2.7470     1.4190     1.5080 c3         1 S13      -0.074400
     10 N1          -2.7210    -0.8200     2.3150 n7         1 S13      -0.532700
     11 O7          -3.8920    -0.1340     2.8760 os         1 S13      -0.232100
     12 C1          -4.1150     1.0800     2.1380 c3         1 S13       0.299600
     13 O5          -5.0830     0.8760     1.1170 os         1 S13      -0.412600
     14 C5          -6.3840     0.5290     1.6020 c3         1 S13       0.145100
     15 C6          -7.3340     0.3330     0.4200 c3         1 S13       0.150400
     16 O6          -6.9070    -0.7890    -0.3560 oh         1 S13      -0.601800
     17 C4          -6.9080     1.6530     2.4990 c3         1 S13       0.106100
     18 O4          -8.1870     1.2870     3.0210 oh         1 S13      -0.599800
     19 C3          -5.9280     1.8770     3.6540 c3         1 S13       0.107100
     20 O3          -6.3790     2.9660     4.4600 oh         1 S13      -0.611800
     21 C2          -4.5450     2.2040     3.0780 c3         1 S13       0.132100
     22 O2          -3.6000     2.3230     4.1430 oh         1 S13      -0.580800
     23 H10         -0.5420    -0.0000    -0.9380 ha         1 S13       0.143000
     24 H11          1.9230    -0.0000    -0.9380 ha         1 S13       0.131000
     25 H151         3.9430     0.2520     2.1860 hc         1 S13       0.043367
     26 H152         3.9420     0.7310     0.4830 hc         1 S13       0.043367
     27 H153         3.9410    -0.9840     0.9200 hc         1 S13       0.043367
     28 H13          1.9240     0.0000     3.3330 ha         1 S13       0.131000
     29 H14         -0.5420     0.0000     3.3330 ha         1 S13       0.143000
     30 H8          -2.5870    -0.3580     0.2510 h1         1 S13       0.059700
     31 H71         -2.8720     1.9930     0.5980 hc         1 S13       0.079700
     32 H72         -2.1100     1.9330     2.2180 hc         1 S13       0.079700
     33 HN1         -2.9940    -1.7190     1.9710 hn         1 S13       0.360800
     34 H5          -6.3200    -0.3880     2.1750 h1         1 S13       0.079700
     35 H61         -7.3280     1.2230    -0.1990 h1         1 S13       0.034700
     36 H62         -8.3370     0.1570     0.7880 h1         1 S13       0.034700
     37 HO6         -7.5190    -0.9370    -1.0570 ho         1 S13       0.403000
     38 H4          -6.9950     2.5640     1.9200 h1         1 S13       0.050700
     39 HO4         -8.7700     2.0270     2.9720 ho         1 S13       0.412000
     40 H3          -5.8650     0.9770     4.2540 h1         1 S13       0.078700
     41 HO3         -6.5440     2.6610     5.3370 ho         1 S13       0.416000
     42 H2          -4.5960     3.1350     2.5270 h1         1 S13       0.057700
     43 HO2         -3.4500     3.2350     4.3300 ho         1 S13       0.408000
@<TRIPOS>BOND
     1    20    19 1
     2    18    17 1
     3    19    17 1
     4    19    21 1
     5    17    14 1
     6    22    21 1
     7    21    12 1
     8    16    15 1
     9    14    15 1
    10    14    13 1
    11    12    13 1
    12    12    11 1
    13    12     9 1
    14    11    10 1
    15     9     8 1
    16    10     8 1
    17     8     7 1
    18     1     7 ar
    19     1     2 ar
    20     7     6 ar
    21     2     3 ar
    22     6     5 ar
    23     3     5 ar
    24     3     4 1
    25     1    23 1
    26     2    24 1
    27     4    25 1
    28     4    26 1
    29     4    27 1
    30     5    28 1
    31     6    29 1
    32     8    30 1
    33     9    31 1
    34     9    32 1
    35    10    33 1
    36    14    34 1
    37    15    35 1
    38    15    36 1
    39    16    37 1
    40    17    38 1
    41    18    39 1
    42    19    40 1
    43    20    41 1
    44    21    42 1
    45    22    43 1
@<TRIPOS>SUBSTRUCTURE
     1 S13         1 TEMP              0 ****  ****    0 ROOT
