@<TRIPOS>MOLECULE
S13
   43    45     1     0     0
SMALL
bcc


@<TRIPOS>ATOM
      1 C10          0.0000     0.0000     0.0000 ca         1 S13      -0.080500
      2 C11          1.3820     0.0000     0.0000 ca         1 S13      -0.107500
      3 C12          2.0740     0.0000     1.1970 ca         1 S13      -0.087300
      4 C15          3.5810    -0.0000     1.1960 c3         1 S13       0.064200
      5 C13          1.3820     0.0000     2.3950 ca         1 S13      -0.107500
      6 C14         -0.0000     0.0000     2.3950 ca         1 S13      -0.080500
      7 C9          -0.6910     0.0000     1.1970 ca         1 S13      -0.103300
      8 C8          -2.1990     0.0000     1.1970 c3         1 S13       0.156800
      9 C7          -2.7470     1.4190     1.5080 c3         1 S13      -0.043400
     10 N1          -2.7210    -0.8200     2.3150 n7         1 S13      -0.341700
     11 O7          -3.8920    -0.1340     2.8760 os         1 S13      -0.271100
     12 C1          -4.1150     1.0800     2.1380 c3         1 S13       0.332600
     13 O5          -5.0830     0.8760     1.1170 os         1 S13      -0.398600
     14 C5          -6.3840     0.5290     1.6020 c3         1 S13       0.164100
     15 C6          -7.3340     0.3330     0.4200 c3         1 S13       0.224400
     16 O6          -6.9070    -0.7890    -0.3560 oh         1 S13      -0.584800
     17 C4          -6.9080     1.6530     2.4990 c3         1 S13       0.142100
     18 O4          -8.1870     1.2870     3.0210 oh         1 S13      -0.579800
     19 C3          -5.9280     1.8770     3.6540 c3         1 S13       0.140100
     20 O3          -6.3790     2.9660     4.4600 oh         1 S13      -0.592800
     21 C2          -4.5450     2.2040     3.0780 c3         1 S13       0.159100
     22 O2          -3.6000     2.3230     4.1430 oh         1 S13      -0.561800
     23 H10         -0.5420    -0.0000    -0.9380 ha         1 S13       0.115500
     24 H11          1.9230    -0.0000    -0.9380 ha         1 S13       0.106000
     25 H151         3.9430     0.2520     2.1860 hc         1 S13       0.006700
     26 H152         3.9420     0.7310     0.4830 hc         1 S13       0.006700
     27 H153         3.9410    -0.9840     0.9200 hc         1 S13       0.006700
     28 H13          1.9240     0.0000     3.3330 ha         1 S13       0.106000
     29 H14         -0.5420     0.0000     3.3330 ha         1 S13       0.115500
     30 H8          -2.5870    -0.3580     0.2510 h1         1 S13       0.032700
     31 H71         -2.8720     1.9930     0.5980 hc         1 S13       0.047700
     32 H72         -2.1100     1.9330     2.2180 hc         1 S13       0.047700
     33 HN1         -2.9940    -1.7190     1.9710 hn         1 S13       0.261800
     34 H5          -6.3200    -0.3880     2.1750 h1         1 S13       0.044700
     35 H61         -7.3280     1.2230    -0.1990 h1         1 S13      -0.003300
     36 H62         -8.3370     0.1570     0.7880 h1         1 S13      -0.003300
     37 HO6         -7.5190    -0.9370    -1.0570 ho         1 S13       0.389000
     38 H4          -6.9950     2.5640     1.9200 h1         1 S13       0.017700
     39 HO4         -8.7700     2.0270     2.9720 ho         1 S13       0.398000
     40 H3          -5.8650     0.9770     4.2540 h1         1 S13       0.040700
     41 HO3         -6.5440     2.6610     5.3370 ho         1 S13       0.403000
     42 H2          -4.5960     3.1350     2.5270 h1         1 S13       0.022700
     43 HO2         -3.4500     3.2350     4.3300 ho         1 S13       0.393000
@<TRIPOS>BOND
     1     1     2 ar  
     2     1     7 ar  
     3     1    23 1   
     4     2     3 ar  
     5     2    24 1   
     6     3     4 1   
     7     3     5 ar  
     8     4    25 1   
     9     4    26 1   
    10     4    27 1   
    11     5     6 ar  
    12     5    28 1   
    13     6     7 ar  
    14     6    29 1   
    15     7     8 1   
    16     8     9 1   
    17     8    10 1   
    18     8    30 1   
    19     9    12 1   
    20     9    31 1   
    21     9    32 1   
    22    10    11 1   
    23    10    33 1   
    24    11    12 1   
    25    12    13 1   
    26    12    21 1   
    27    13    14 1   
    28    14    15 1   
    29    14    17 1   
    30    14    34 1   
    31    15    16 1   
    32    15    35 1   
    33    15    36 1   
    34    16    37 1   
    35    17    18 1   
    36    17    19 1   
    37    17    38 1   
    38    18    39 1   
    39    19    20 1   
    40    19    21 1   
    41    19    40 1   
    42    20    41 1   
    43    21    22 1   
    44    21    42 1   
    45    22    43 1   
@<TRIPOS>SUBSTRUCTURE
     1 S13         1 TEMP              0 ****  ****    0 ROOT
