@<TRIPOS>MOLECULE
molecule
   57    60     1     0     0
SMALL
bcc


@<TRIPOS>ATOM
      1 C1           0.0000     0.0000     0.0000 cc         1 S14       0.015700
      2 C2           1.4090     0.0000     0.0000 cc         1 S14      -0.095000
      3 C3           2.0760     0.0000     1.1840 cd         1 S14      -0.096000
      4 C4           1.3470     0.0000     2.3940 cd         1 S14      -0.140000
      5 C5          -0.0150    -0.0060     2.3680 cc         1 S14       0.014700
      6 N6          -0.6800    -0.0000     1.1840 na         1 S14       0.166000
      7 N7          -2.0430    -0.0000     0.8520 nc         1 S14      -0.596100
      8 C8          -2.1200    -0.0010    -0.4580 cd         1 S14       0.593200
      9 N9          -0.9000    -0.0010    -0.9760 nd         1 S14      -0.442300
     10 C14          2.0660    -0.0000     3.6930 ca         1 S14       0.010000
     11 C15          2.8510    -1.0920     4.0580 ca         1 S14      -0.105000
     12 C16          3.5170    -1.0860     5.2670 ca         1 S14      -0.126500
     13 C17          3.4060     0.0010     6.1150 ca         1 S14      -0.168300
     14 C18          2.6250     1.0860     5.7600 ca         1 S14      -0.126500
     15 C19          1.9590     1.0930     4.5510 ca         1 S14      -0.105000
     16 C24          4.1360     0.0020     7.4340 c3         1 S14      -0.112400
     17 C25          5.1070     1.1830     7.4790 c3         1 S14       0.047500
     18 C26          5.9260     1.1130     8.7420 c          1 S14       0.646100
     19 N27          5.7590     2.0400     9.7060 n          1 S14      -0.449800
     20 C28          3.1410     0.1260     8.5590 c          1 S14       0.678100
     21 N30          6.0010     1.1280     6.3130 nz         1 S14      -0.794600
     22 O32          6.7340     0.2200     8.8920 o          1 S14      -0.590100
     23 O33          2.9010     1.2140     9.0380 o          1 S14      -0.619100
     24 N34          2.5180    -0.9720     9.0310 n          1 S14      -0.461800
     25 C35          1.5500    -0.8500    10.1250 c3         1 S14       0.091800
     26 C39          2.8080    -2.2850     8.4520 c3         1 S14       0.091800
     27 C43          4.9140     3.2380     9.6040 c3         1 S14       0.033000
     28 C44          5.0110     3.9830    10.9520 c3         1 S14       0.170600
     29 C45          5.4670     2.8720    11.9340 c3         1 S14      -0.121400
     30 C46          6.4000     2.0240    11.0340 c3         1 S14       0.101000
     31 F53          3.7680     4.4990    11.3310 f          1 S14      -0.214300
     32 H2           1.9550    -0.0000    -0.9350 ha         1 S14       0.174000
     33 H3           3.1590     0.0050     1.1990 ha         1 S14       0.143000
     34 H5          -0.5710    -0.0050     3.2970 h4         1 S14       0.178000
     35 H8          -3.0400    -0.0010    -1.0290 h5         1 S14       0.101800
     36 H15          2.9380    -1.9440     3.3950 ha         1 S14       0.161000
     37 H16          4.1280    -1.9340     5.5510 ha         1 S14       0.144500
     38 H18          2.5420     1.9350     6.4280 ha         1 S14       0.144500
     39 H19          1.3470     1.9430     4.2740 ha         1 S14       0.161000
     40 H24          4.6880    -0.9240     7.5410 hc         1 S14       0.102700
     41 H25          4.5490     2.1100     7.4620 hx         1 S14       0.136700
     42 H301         6.9050     1.4710     6.5690 hn         1 S14       0.460467
     43 H302         5.6250     1.6930     5.5780 hn         1 S14       0.460467
     44 H351         2.0770    -0.6800    11.0560 h1         1 S14       0.054367
     45 H352         0.8860    -0.0180     9.9280 h1         1 S14       0.054367
     46 H353         0.9720    -1.7640    10.1990 h1         1 S14       0.054367
     47 H391         2.5810    -3.0580     9.1770 h1         1 S14       0.054367
     48 H392         2.2010    -2.4310     7.5660 h1         1 S14       0.054367
     49 H393         3.8560    -2.3390     8.1840 h1         1 S14       0.054367
     50 H431         5.2740     3.8760     8.8050 h1         1 S14       0.075700
     51 H432         3.8870     2.9490     9.4170 h1         1 S14       0.075700
     52 H44          5.7560     4.7680    10.8980 h1         1 S14       0.075700
     53 H451         6.0150     3.2940    12.7670 hc         1 S14       0.086200
     54 H452         4.6210     2.2860    12.2720 hc         1 S14       0.086200
     55 H461         7.3830     2.4760    10.9810 h1         1 S14       0.074200
     56 H462         6.4630     1.0100    11.4080 h1         1 S14       0.074200
     57 H303         6.0590     0.1850     5.9820 hn         1 S14       0.460467
@<TRIPOS>BOND
     1     1     2 1
     2     1     6 1
     3     1     9 2
     4     2     3 2
     5     2    32 1
     6     3     4 1
     7     3    33 1
     8     4     5 2
     9     4    10 1
    10     5     6 1
    11     5    34 1
    12     6     7 1
    13     7     8 2
    14     8     9 1
    15     8    35 1
    16    10    11 ar
    17    10    15 ar
    18    11    12 ar
    19    11    36 1
    20    12    13 ar
    21    12    37 1
    22    13    14 ar
    23    13    16 1
    24    14    15 ar
    25    14    38 1
    26    15    39 1
    27    16    17 1
    28    16    20 1
    29    16    40 1
    30    17    18 1
    31    17    21 1
    32    17    41 1
    33    18    19 1
    34    18    22 2
    35    19    27 1
    36    19    30 1
    37    20    23 2
    38    20    24 1
    39    21    42 1
    40    21    43 1
    41    24    25 1
    42    24    26 1
    43    25    44 1
    44    25    45 1
    45    25    46 1
    46    26    47 1
    47    26    48 1
    48    26    49 1
    49    27    28 1
    50    27    50 1
    51    27    51 1
    52    28    29 1
    53    28    31 1
    54    28    52 1
    55    29    30 1
    56    29    53 1
    57    29    54 1
    58    30    55 1
    59    30    56 1
    60    57    21 1
@<TRIPOS>SUBSTRUCTURE
     1 S14         1 TEMP              0 ****  ****    0 ROOT
