@<TRIPOS>MOLECULE
S16
   30    31     1     0     0
SMALL
bcc


@<TRIPOS>ATOM
      1 OAA          0.0000     0.0000     0.0000 o          1 S16      -0.881300
      2 CAO          1.3480     0.0000     0.0000 c          1 S16       0.972200
      3 OAC          1.9550     0.0000     1.0510 o          1 S16      -0.881300
      4 CAT          2.0860     0.0000    -1.2800 ca         1 S16      -0.088600
      5 CAL          3.4810     0.0010    -1.2830 ca         1 S16      -0.071000
      6 CAG          1.3890    -0.0050    -2.4910 ca         1 S16      -0.071000
      7 CAE          2.0820    -0.0060    -3.6840 ca         1 S16      -0.133000
      8 CAF          3.4640    -0.0010    -3.6880 ca         1 S16      -0.160000
      9 CAS          4.1660     0.0000    -2.4880 ca         1 S16      -0.138400
     10 NAN          5.5660     0.0000    -2.4970 ns         1 S16      -0.036100
     11 CAP          6.2460     0.6730    -1.5460 c          1 S16       0.542100
     12 OAB          5.6460     1.2080    -0.6340 o          1 S16      -0.654100
     13 NAM          7.5900     0.7510    -1.6070 ns         1 S16      -0.074100
     14 CAR          8.3020     1.3640    -0.5710 ca         1 S16      -0.053400
     15 CAJ          9.5510     0.8800    -0.2020 ca         1 S16      -0.116500
     16 CAH         10.2520     1.4870     0.8210 ca         1 S16      -0.083000
     17 CAQ          9.7130     2.5790     1.4780 ca         1 S16      -0.053600
     18 Cl          10.5970     3.3400     2.7630 cl         1 S16      -0.056400
     19 CAI          8.4700     3.0630     1.1130 ca         1 S16      -0.083000
     20 CAK          7.7660     2.4630     0.0870 ca         1 S16      -0.116500
     21 H2           4.0270     0.0010    -0.3480 ha         1 S16       0.163000
     22 H3           0.3060    -0.0090    -2.4930 ha         1 S16       0.129000
     23 H4           1.5410    -0.0080    -4.6220 ha         1 S16       0.083000
     24 H5           4.0020    -0.0010    -4.6280 ha         1 S16       0.081000
     25 H6           6.0620    -0.5290    -3.1860 hn         1 S16       0.143500
     26 H7           8.0760     0.3910    -2.4040 hn         1 S16       0.155500
     27 H8           9.9740     0.0250    -0.7170 ha         1 S16       0.132000
     28 H9          11.2260     1.1090     1.1080 ha         1 S16       0.109500
     29 H10          8.0510     3.9190     1.6280 ha         1 S16       0.109500
     30 H11          6.7930     2.8440    -0.1980 ha         1 S16       0.132000
@<TRIPOS>BOND
     1     1     2 1   
     2     2     3 1   
     3     2     4 1   
     4     4     5 ar  
     5     4     6 ar  
     6     5     9 ar  
     7     5    21 1   
     8     6     7 ar  
     9     6    22 1   
    10     7     8 ar  
    11     7    23 1   
    12     8     9 ar  
    13     8    24 1   
    14     9    10 1   
    15    10    11 1   
    16    10    25 1   
    17    11    12 2   
    18    11    13 1   
    19    13    14 1   
    20    13    26 1   
    21    14    15 ar  
    22    14    20 ar  
    23    15    16 ar  
    24    15    27 1   
    25    16    17 ar  
    26    16    28 1   
    27    17    18 1   
    28    17    19 ar  
    29    19    20 ar  
    30    19    29 1   
    31    20    30 1   
@<TRIPOS>SUBSTRUCTURE
     1 S16         1 TEMP              0 ****  ****    0 ROOT
