@<TRIPOS>MOLECULE
molecule
   30    31     1     0     0
SMALL
bcc


@<TRIPOS>ATOM
      1 OAA          0.0000     0.0000     0.0000 o          1 S16      -0.833300
      2 CAO          1.3480     0.0000     0.0000 c          1 S16       0.882200
      3 OAC          1.9550     0.0000     1.0510 o          1 S16      -0.833300
      4 CAT          2.0860     0.0000    -1.2800 ca         1 S16      -0.089600
      5 CAL          3.4810     0.0010    -1.2830 ca         1 S16      -0.097000
      6 CAG          1.3890    -0.0050    -2.4910 ca         1 S16      -0.103000
      7 CAE          2.0820    -0.0060    -3.6840 ca         1 S16      -0.152000
      8 CAF          3.4640    -0.0010    -3.6880 ca         1 S16      -0.184000
      9 CAS          4.1660     0.0000    -2.4880 ca         1 S16       0.015600
     10 NAN          5.5660     0.0000    -2.4970 ns         1 S16      -0.482100
     11 CAP          6.2460     0.6730    -1.5460 c          1 S16       0.772100
     12 OAB          5.6460     1.2080    -0.6340 o          1 S16      -0.609100
     13 NAM          7.5900     0.7510    -1.6070 ns         1 S16      -0.502100
     14 CAR          8.3020     1.3640    -0.5710 ca         1 S16       0.087600
     15 CAJ          9.5510     0.8800    -0.2020 ca         1 S16      -0.140500
     16 CAH         10.2520     1.4870     0.8210 ca         1 S16      -0.107000
     17 CAQ          9.7130     2.5790     1.4780 ca         1 S16       0.003400
     18 Cl          10.5970     3.3400     2.7630 cl         1 S16      -0.132400
     19 CAI          8.4700     3.0630     1.1130 ca         1 S16      -0.107000
     20 CAK          7.7660     2.4630     0.0870 ca         1 S16      -0.140500
     21 H2           4.0270     0.0010    -0.3480 ha         1 S16       0.182000
     22 H3           0.3060    -0.0090    -2.4930 ha         1 S16       0.155000
     23 H4           1.5410    -0.0080    -4.6220 ha         1 S16       0.106000
     24 H5           4.0020    -0.0010    -4.6280 ha         1 S16       0.099000
     25 H6           6.0620    -0.5290    -3.1860 hn         1 S16       0.301500
     26 H7           8.0760     0.3910    -2.4040 hn         1 S16       0.311500
     27 H8           9.9740     0.0250    -0.7170 ha         1 S16       0.158000
     28 H9          11.2260     1.1090     1.1080 ha         1 S16       0.140500
     29 H10          8.0510     3.9190     1.6280 ha         1 S16       0.140500
     30 H11          6.7930     2.8440    -0.1980 ha         1 S16       0.158000
@<TRIPOS>BOND
     1     3     2 1
     2     6     7 ar
     3     6     4 ar
     4     2     1 1
     5     2     4 1
     6     7     8 ar
     7     4     5 ar
     8     8     9 ar
     9     5     9 ar
    10     9    10 1
    11    10    11 1
    12    12    11 2
    13    11    13 1
    14    13    14 1
    15    20    14 ar
    16    20    19 ar
    17    14    15 ar
    18    19    17 ar
    19    15    16 ar
    20    17    16 ar
    21    17    18 1
    22     5    21 1
    23     6    22 1
    24     7    23 1
    25     8    24 1
    26    10    25 1
    27    13    26 1
    28    15    27 1
    29    16    28 1
    30    19    29 1
    31    20    30 1
@<TRIPOS>SUBSTRUCTURE
     1 S16         1 TEMP              0 ****  ****    0 ROOT
