@<TRIPOS>MOLECULE
molecule
   51    51     1     0     0
SMALL
bcc


@<TRIPOS>ATOM
      1 CD1          0.0000     0.0000     0.0000 ca         1 S17      -0.118000
      2 CE1          1.3890     0.0000     0.0000 ca         1 S17      -0.103500
      3 CZ           2.0830     0.0000     1.2080 ca         1 S17      -0.019900
      4 Br1          3.9750    -0.0060     1.1750 br         1 S17      -0.098100
      5 CE2          1.3950     0.0110     2.4240 ca         1 S17      -0.103500
      6 CD2          0.0020     0.0180     2.4230 ca         1 S17      -0.118000
      7 CG          -0.6920     0.0000     1.2080 ca         1 S17      -0.077300
      8 CB          -2.2170     0.0230     1.1690 c3         1 S17      -0.051100
      9 CA          -2.9190    -1.3310     1.4050 c3         1 S17       0.087700
     10 C           -2.7030    -2.2910     0.2100 c          1 S17       0.620100
     11 O           -2.5810    -3.5010     0.3950 o          1 S17      -0.523000
     12 OAT         -2.6590    -1.8080    -1.0700 os         1 S17      -0.425900
     13 CAA         -3.3930    -2.6200    -2.0060 c3         1 S17       0.134700
     14 N           -2.5160    -1.9640     2.6900 ns         1 S17      -0.571900
     15 CAV         -2.7100    -1.4410     3.9140 c          1 S17       0.666100
     16 OAC         -3.2320    -0.3510     4.1530 o          1 S17      -0.613100
     17 CAP         -2.2060    -2.3150     5.0680 c3         1 S17      -0.157400
     18 CAN         -3.1500    -2.3300     6.2730 c3         1 S17      -0.067400
     19 CAL         -3.3250    -3.7540     6.8070 c3         1 S17      -0.085400
     20 CAK         -2.2220    -4.1710     7.7910 c3         1 S17      -0.078400
     21 CAM         -2.4640    -3.6650     9.2200 c3         1 S17      -0.088400
     22 CAO         -3.5710    -4.4450     9.9130 c3         1 S17      -0.158400
     23 CAU         -3.1840    -4.9590    11.3100 c          1 S17       0.664100
     24 OAB         -3.6210    -6.0190    11.7260 o          1 S17      -0.577100
     25 NAR         -2.3680    -4.2040    12.0160 ns         1 S17      -0.442400
     26 OAE         -2.0100    -4.6150    13.2370 oh         1 S17      -0.373100
     27 HD1         -0.5430    -0.0070    -0.9370 ha         1 S17       0.145000
     28 HE1          1.9310    -0.0000    -0.9380 ha         1 S17       0.145500
     29 HE2          1.9410     0.0180     3.3600 ha         1 S17       0.145500
     30 HD2         -0.5430     0.0230     3.3600 ha         1 S17       0.145000
     31 HBC1        -2.5630     0.7180     1.9250 hc         1 S17       0.075700
     32 HBC2        -2.5240     0.3970     0.1990 hc         1 S17       0.075700
     33 HA          -3.9820    -1.1330     1.4670 h1         1 S17       0.087700
     34 H           -2.0630    -2.8550     2.6390 hn         1 S17       0.333500
     35 HAA1        -4.3680    -2.8520    -1.5940 h1         1 S17       0.050367
     36 HAA2        -3.5140    -2.0780    -2.9360 h1         1 S17       0.050367
     37 HAA3        -2.8500    -3.5390    -2.1910 h1         1 S17       0.050367
     38 HAP1        -2.0870    -3.3300     4.7080 hc         1 S17       0.058700
     39 HAP2        -1.2400    -1.9440     5.3890 hc         1 S17       0.058700
     40 HAN1        -2.7400    -1.7030     7.0550 hc         1 S17       0.056200
     41 HAN2        -4.1160    -1.9400     5.9740 hc         1 S17       0.056200
     42 HAL1        -3.3220    -4.4420     5.9690 hc         1 S17       0.045700
     43 HAL2        -4.2830    -3.8220     7.3090 hc         1 S17       0.045700
     44 HAK1        -1.2760    -3.7780     7.4390 hc         1 S17       0.045700
     45 HAK2        -2.1650    -5.2530     7.8100 hc         1 S17       0.045700
     46 HAM1        -1.5490    -3.7690     9.7900 hc         1 S17       0.043200
     47 HAM2        -2.7400    -2.6180     9.1810 hc         1 S17       0.043200
     48 HAO1        -4.4380    -3.8020    10.0100 hc         1 S17       0.074700
     49 HAO2        -3.8360    -5.2930     9.2940 hc         1 S17       0.074700
     50 HAR         -2.1870    -3.2610    11.7330 hn         1 S17       0.319500
     51 HAE         -1.3370    -4.0480    13.5750 ho         1 S17       0.403000
@<TRIPOS>BOND
     1     1     2 ar
     2     1     7 ar
     3     2     3 ar
     4     3     4 1
     5     3     5 ar
     6     5     6 ar
     7     6     7 ar
     8     7     8 1
     9     8     9 1
    10     9    10 1
    11     9    14 1
    12    10    11 2
    13    10    12 1
    14    12    13 1
    15    14    15 1
    16    15    16 2
    17    15    17 1
    18    17    18 1
    19    18    19 1
    20    19    20 1
    21    20    21 1
    22    21    22 1
    23    22    23 1
    24    23    24 2
    25    23    25 1
    26    25    26 1
    27     1    27 1
    28     2    28 1
    29     5    29 1
    30     6    30 1
    31     8    31 1
    32     8    32 1
    33     9    33 1
    34    14    34 1
    35    13    35 1
    36    13    36 1
    37    13    37 1
    38    17    38 1
    39    17    39 1
    40    18    40 1
    41    18    41 1
    42    19    42 1
    43    19    43 1
    44    20    44 1
    45    20    45 1
    46    21    46 1
    47    21    47 1
    48    22    48 1
    49    22    49 1
    50    25    50 1
    51    26    51 1
@<TRIPOS>SUBSTRUCTURE
     1 S17         1 TEMP              0 ****  ****    0 ROOT
