@<TRIPOS>MOLECULE
S19
   49    51     1     0     0
SMALL
bcc


@<TRIPOS>ATOM
      1 C1           0.0000     0.0000     0.0000 c3         1 S19       0.054200
      2 C2           1.5070     0.0000     0.0000 ca         1 S19      -0.042300
      3 C3           2.1980     0.0000     1.1980 ca         1 S19      -0.087000
      4 C4           3.5780     0.0000     1.2020 ca         1 S19      -0.084500
      5 C5           4.2740    -0.0000    -0.0010 ca         1 S19      -0.112400
      6 N6           5.6720    -0.0010    -0.0010 nu         1 S19      -0.160300
      7 C7           6.3620    -0.6360    -1.0150 ca         1 S19       0.609200
      8 N8           5.7110    -1.1830    -2.0340 nb         1 S19      -0.734000
      9 C9           6.3690    -1.7910    -3.0100 ca         1 S19       0.792900
     10 N10          5.6560    -2.3470    -4.0510 nu         1 S19      -0.520900
     11 C11          6.3620    -3.0270    -5.1420 c3         1 S19       0.134500
     12 C12          6.7930    -1.9990    -6.1920 c3         1 S19      -0.072400
     13 C13          5.5470    -1.3440    -6.7970 c3         1 S19       0.202400
     14 O14          4.7080    -2.3540    -7.3620 os         1 S19      -0.345600
     15 C15          4.2350    -3.3150    -6.4170 c3         1 S19       0.217400
     16 C16          5.4280    -4.0490    -5.7970 c3         1 S19      -0.144500
     17 N17          4.9490    -4.9970    -4.7830 nz         1 S19       0.082400
     18 N18          7.6940    -1.8850    -3.0150 nb         1 S19      -0.721000
     19 C19          8.4180    -1.3680    -2.0390 ca         1 S19       0.578200
     20 C20          7.7710    -0.7090    -0.9880 ca         1 S19      -0.608200
     21 C21          8.5390    -0.1140     0.1170 c          1 S19       0.384700
     22 N22          9.8850    -0.0820     0.0640 nz         1 S19       0.211600
     23 O23          7.9590     0.3510     1.0800 o          1 S19      -0.495100
     24 C24          3.5780    -0.0010    -1.2030 ca         1 S19      -0.084500
     25 C25          2.1970    -0.0060    -1.1990 ca         1 S19      -0.087000
     26 H1          -0.3610     0.7400     0.7040 hc         1 S19       0.021700
     27 H1A         -0.3610     0.2400    -0.9930 hc         1 S19       0.021700
     28 H1B         -0.3610    -0.9800     0.2890 hc         1 S19       0.021700
     29 H3           1.6540     0.0000     2.1360 ha         1 S19       0.121500
     30 H4           4.1180     0.0000     2.1410 ha         1 S19       0.122000
     31 HN6          6.1720     0.4830     0.7180 hn         1 S19       0.328800
     32 HN10         4.6560    -2.3170    -4.0450 hn         1 S19       0.315800
     33 H11          7.2370    -3.5340    -4.7530 h1         1 S19       0.072700
     34 H12          7.4080    -1.2400    -5.7230 hc         1 S19       0.058200
     35 H12A         7.3550    -2.4960    -6.9740 hc         1 S19       0.058200
     36 H13          5.0050    -0.8170    -6.0220 h1         1 S19       0.036200
     37 H13A         5.8460    -0.6500    -7.5720 h1         1 S19       0.036200
     38 H15          3.6790    -2.8100    -5.6360 h1         1 S19       0.029700
     39 H15A         3.5950    -4.0300    -6.9200 h1         1 S19       0.029700
     40 H16          5.9650    -4.5820    -6.5720 hx         1 S19       0.121700
     41 HN17         4.2470    -4.5570    -4.2210 hn         1 S19       0.228133
     42 HN1A         5.7130    -5.2790    -4.2010 hn         1 S19       0.228133
     43 H19          9.4980    -1.4480    -2.0550 h4         1 S19      -0.035900
     44 HN22        10.1750     0.3660    -0.7830 hn         1 S19       0.247467
     45 HN2A        10.2420    -1.0170     0.0850 hn         1 S19       0.247467
     46 H24          4.1180    -0.0030    -2.1420 ha         1 S19       0.122000
     47 H25          1.6530    -0.0070    -2.1350 ha         1 S19       0.121500
     48 H173         4.5760    -5.8090    -5.2340 hn         1 S19       0.228133
     49 H223        10.2380     0.4310     0.8470 hn         1 S19       0.247467
@<TRIPOS>BOND
     1     1     2 1   
     2     1    26 1   
     3     1    27 1   
     4     1    28 1   
     5     2     3 ar  
     6     2    25 ar  
     7     3     4 ar  
     8     3    29 1   
     9     4     5 ar  
    10     4    30 1   
    11     5     6 1   
    12     5    24 ar  
    13     6     7 1   
    14     6    31 1   
    15     7     8 ar  
    16     7    20 ar  
    17     8     9 ar  
    18     9    10 1   
    19     9    18 ar  
    20    10    11 1   
    21    10    32 1   
    22    11    12 1   
    23    11    16 1   
    24    11    33 1   
    25    12    13 1   
    26    12    34 1   
    27    12    35 1   
    28    13    14 1   
    29    13    36 1   
    30    13    37 1   
    31    14    15 1   
    32    15    16 1   
    33    15    38 1   
    34    15    39 1   
    35    16    17 1   
    36    16    40 1   
    37    17    41 1   
    38    17    42 1   
    39    17    48 1   
    40    18    19 ar  
    41    19    20 ar  
    42    19    43 1   
    43    20    21 1   
    44    21    22 1   
    45    21    23 2   
    46    22    44 1   
    47    22    45 1   
    48    22    49 1   
    49    24    25 ar  
    50    24    46 1   
    51    25    47 1   
@<TRIPOS>SUBSTRUCTURE
     1 S19         1 TEMP              0 ****  ****    0 ROOT
