@<TRIPOS>MOLECULE
S1C
   31    32     1     0     0
SMALL
bcc


@<TRIPOS>ATOM
      1 N            0.0000     0.0000     0.0000 ns         1 S1C      -0.028100
      2 C            2.1010    -0.0990    -1.3020 c3         1 S1C      -0.071100
      3 O            1.9550     0.0780     1.0470 o          1 S1C      -0.633100
      4 C1           1.3480     0.0000     0.0000 c          1 S1C       0.549100
      5 C10         -4.7140    -0.7080     6.2070 ca         1 S1C      -0.147000
      6 C11         -4.2200    -0.0250     7.2990 ca         1 S1C      -0.055000
      7 C12         -3.0170     0.6790     7.1990 ca         1 S1C      -0.105600
      8 C13         -2.3170     0.6880     5.9940 ca         1 S1C      -0.063000
      9 C14         -2.4880     1.4110     8.3680 c          1 S1C       0.974200
     10 C2          -0.6990     0.0000     1.2110 ca         1 S1C      -0.132400
     11 C3          -0.1920     0.6930     2.3050 ca         1 S1C      -0.114500
     12 C4          -0.8800     0.6940     3.5000 ca         1 S1C      -0.100500
     13 C5          -2.0840     0.0010     3.6110 cp         1 S1C       0.008000
     14 C6          -2.5910    -0.6930     2.5120 ca         1 S1C      -0.100500
     15 C7          -1.9030    -0.6870     1.3180 ca         1 S1C      -0.114500
     16 C8          -2.8230    -0.0040     4.8970 cp         1 S1C      -0.092000
     17 C9          -4.0250    -0.7020     5.0100 ca         1 S1C      -0.123000
     18 O1          -3.1650     1.4010     9.5330 o          1 S1C      -0.884300
     19 O2          -1.4410     2.0220     8.2790 o          1 S1C      -0.884300
     20 H3          -0.5000     0.0210    -0.8670 hn         1 S1C       0.156500
     21 H1           2.0080    -1.1040    -1.6970 hc         1 S1C       0.018367
     22 H2           3.1470     0.1270    -1.1320 hc         1 S1C       0.018367
     23 H            1.6890     0.6070    -2.0120 hc         1 S1C       0.018367
     24 H9          -5.6470    -1.2520     6.2900 ha         1 S1C       0.084000
     25 H10         -4.7650    -0.0340     8.2350 ha         1 S1C       0.128000
     26 H11         -1.3840     1.2320     5.9100 ha         1 S1C       0.129000
     27 H4           0.7440     1.2310     2.2180 ha         1 S1C       0.115000
     28 H5          -0.4850     1.2330     4.3520 ha         1 S1C       0.122000
     29 H6          -3.5280    -1.2300     2.5950 ha         1 S1C       0.122000
     30 H7          -2.2960    -1.2260     0.4640 ha         1 S1C       0.115000
     31 H8          -4.4190    -1.2410     4.1560 ha         1 S1C       0.089000
@<TRIPOS>BOND
     1     1     4 1   
     2     1    10 1   
     3     1    20 1   
     4     2     4 1   
     5     2    21 1   
     6     2    22 1   
     7     2    23 1   
     8     3     4 2   
     9     5     6 ar  
    10     5    17 ar  
    11     5    24 1   
    12     6     7 ar  
    13     6    25 1   
    14     7     8 ar  
    15     7     9 1   
    16     8    16 ar  
    17     8    26 1   
    18     9    18 1   
    19     9    19 1   
    20    10    11 ar  
    21    10    15 ar  
    22    11    12 ar  
    23    11    27 1   
    24    12    13 ar  
    25    12    28 1   
    26    13    14 ar  
    27    13    16 1   
    28    14    15 ar  
    29    14    29 1   
    30    15    30 1   
    31    16    17 ar  
    32    17    31 1   
@<TRIPOS>SUBSTRUCTURE
     1 S1C         1 TEMP              0 ****  ****    0 ROOT
