@<TRIPOS>MOLECULE
molecule
   31    32     1     0     0
SMALL
bcc


@<TRIPOS>ATOM
      1 N            0.0000     0.0000     0.0000 ns         1 S1C      -0.476100
      2 C            2.1010    -0.0990    -1.3020 c3         1 S1C      -0.172100
      3 O            1.9550     0.0780     1.0470 o          1 S1C      -0.591100
      4 C1           1.3480     0.0000     0.0000 c          1 S1C       0.652100
      5 C10         -4.7140    -0.7080     6.2070 ca         1 S1C      -0.167000
      6 C11         -4.2200    -0.0250     7.2990 ca         1 S1C      -0.084000
      7 C12         -3.0170     0.6790     7.1990 ca         1 S1C      -0.105600
      8 C13         -2.3170     0.6880     5.9940 ca         1 S1C      -0.086000
      9 C14         -2.4880     1.4110     8.3680 c          1 S1C       0.882200
     10 C2          -0.6990     0.0000     1.2110 ca         1 S1C       0.019600
     11 C3          -0.1920     0.6930     2.3050 ca         1 S1C      -0.143000
     12 C4          -0.8800     0.6940     3.5000 ca         1 S1C      -0.117500
     13 C5          -2.0840     0.0010     3.6110 cp         1 S1C      -0.010000
     14 C6          -2.5910    -0.6930     2.5120 ca         1 S1C      -0.117500
     15 C7          -1.9030    -0.6870     1.3180 ca         1 S1C      -0.143000
     16 C8          -2.8230    -0.0040     4.8970 cp         1 S1C      -0.086000
     17 C9          -4.0250    -0.7020     5.0100 ca         1 S1C      -0.139000
     18 O1          -3.1650     1.4010     9.5330 o          1 S1C      -0.836300
     19 O2          -1.4410     2.0220     8.2790 o          1 S1C      -0.836300
     20 H3          -0.5000     0.0210    -0.8670 hn         1 S1C       0.313500
     21 H1           2.0080    -1.1040    -1.6970 hc         1 S1C       0.056700
     22 H2           3.1470     0.1270    -1.1320 hc         1 S1C       0.056700
     23 H            1.6890     0.6070    -2.0120 hc         1 S1C       0.056700
     24 H9          -5.6470    -1.2520     6.2900 ha         1 S1C       0.106000
     25 H10         -4.7650    -0.0340     8.2350 ha         1 S1C       0.154000
     26 H11         -1.3840     1.2320     5.9100 ha         1 S1C       0.149000
     27 H4           0.7440     1.2310     2.2180 ha         1 S1C       0.136000
     28 H5          -0.4850     1.2330     4.3520 ha         1 S1C       0.144500
     29 H6          -3.5280    -1.2300     2.5950 ha         1 S1C       0.144500
     30 H7          -2.2960    -1.2260     0.4640 ha         1 S1C       0.136000
     31 H8          -4.4190    -1.2410     4.1560 ha         1 S1C       0.104000
@<TRIPOS>BOND
     1     5     6 ar
     2     5    17 ar
     3     6     7 ar
     4    17    16 ar
     5    19     9 1
     6     7     9 1
     7     7     8 ar
     8    16     8 ar
     9    16    13 1
    10     9    18 1
    11    13    14 ar
    12    13    12 ar
    13    14    15 ar
    14    12    11 ar
    15    15    10 ar
    16    11    10 ar
    17    10     1 1
    18     1     4 1
    19     3     4 2
    20     4     2 1
    21     1    20 1
    22     2    21 1
    23     2    22 1
    24     2    23 1
    25     5    24 1
    26     6    25 1
    27     8    26 1
    28    11    27 1
    29    12    28 1
    30    14    29 1
    31    15    30 1
    32    17    31 1
@<TRIPOS>SUBSTRUCTURE
     1 S1C         1 TEMP              0 ****  ****    0 ROOT
