@<TRIPOS>MOLECULE
molecule
   24    25     1     0     0
SMALL
bcc


@<TRIPOS>ATOM
      1 C            0.0000     0.0000     0.0000 c          1 S1D       0.882200
      2 O            1.3470     0.0000     0.0000 o          1 S1D      -0.835300
      3 C1          -0.7390     0.0000     1.2800 ca         1 S1D      -0.105600
      4 C10         -7.0730     0.0000     2.5250 ca         1 S1D       0.099900
      5 C11         -6.3730    -0.0010     3.7210 ca         1 S1D      -0.168500
      6 C12         -4.9930    -0.0010     3.7150 ca         1 S1D      -0.108500
      7 C2          -2.1320    -0.0000     1.2820 ca         1 S1D      -0.086000
      8 C3          -2.8200    -0.0010     2.4920 cp         1 S1D      -0.089000
      9 C4          -2.1120    -0.0010     3.6930 ca         1 S1D      -0.137000
     10 C5          -0.7310     0.0000     3.6860 ca         1 S1D      -0.166000
     11 C6          -0.0420    -0.0060     2.4910 ca         1 S1D      -0.081000
     12 C7          -4.3030     0.0000     2.5030 cp         1 S1D      -0.010000
     13 C8          -5.0120    -0.0000     1.3030 ca         1 S1D      -0.108500
     14 C9          -6.3910    -0.0060     1.3190 ca         1 S1D      -0.168500
     15 O1          -0.6080     0.0060    -1.0520 o          1 S1D      -0.835300
     16 H6          -6.9090     0.0010     4.6610 ha         1 S1D       0.133000
     17 H7          -4.4470    -0.0020     4.6500 ha         1 S1D       0.147000
     18 H           -2.6780    -0.0000     0.3470 ha         1 S1D       0.148000
     19 H1          -2.6470     0.0010     4.6350 ha         1 S1D       0.105000
     20 H2          -0.1870    -0.0020     4.6230 ha         1 S1D       0.108000
     21 H3           1.0420    -0.0050     2.4920 ha         1 S1D       0.156000
     22 H4          -4.4800    -0.0020     0.3600 ha         1 S1D       0.147000
     23 H5          -6.9430    -0.0060     0.3860 ha         1 S1D       0.133000
     24 F           -8.4240     0.0000     2.5350 f          1 S1D      -0.159900
@<TRIPOS>BOND
     1    10    11 ar
     2    10     9 ar
     3    11     3 ar
     4     9     8 ar
     5     3     7 ar
     6     3     1 1
     7     8     7 ar
     8     8    12 1
     9    15     1 1
    10     1     2 1
    11    12     6 ar
    12    12    13 ar
    13     6     5 ar
    14    13    14 ar
    15     5     4 ar
    16    14     4 ar
    17     4    24 1
    18     5    16 1
    19     6    17 1
    20     7    18 1
    21     9    19 1
    22    10    20 1
    23    11    21 1
    24    13    22 1
    25    14    23 1
@<TRIPOS>SUBSTRUCTURE
     1 S1D         1 TEMP              0 ****  ****    0 ROOT
