@<TRIPOS>MOLECULE
S1P
   62    61     1     0     0
SMALL
bcc


@<TRIPOS>ATOM
      1 C1          1.2730   -1.1210    0.1370 c3        1 S1P      0.157400
      2 O1          0.9590   -1.3240    1.4770 os        1 S1P     -0.577200
      3 C2          2.0330    0.2200   -0.0410 c3        1 S1P      0.146500
      4 N2          1.3550    1.3930    0.4830 n3        1 S1P     -0.902800
      5 C3          2.3420    0.3810   -1.5560 c3        1 S1P      0.169300
      6 O3          3.1680   -0.7250   -1.9110 oh        1 S1P     -0.597800
      7 C4          2.9560    1.7060   -1.8660 c2        1 S1P     -0.163200
      8 C5          4.2490    2.0340   -1.9190 c2        1 S1P     -0.182200
      9 C6          5.4080    1.1550   -1.6360 c3        1 S1P     -0.058200
     10 C7          6.2000    0.8570   -2.8950 c3        1 S1P     -0.070400
     11 C8          7.4300    0.0310   -2.5830 c3        1 S1P     -0.081400
     12 C9          8.2180   -0.2790   -3.8380 c3        1 S1P     -0.078400
     13 C10         9.4480   -1.1030   -3.5250 c3        1 S1P     -0.079400
     14 C11        10.2350   -1.4150   -4.7800 c3        1 S1P     -0.078400
     15 C12        11.4670   -2.2380   -4.4660 c3        1 S1P     -0.079400
     16 C13        12.2530   -2.5510   -5.7210 c3        1 S1P     -0.078400
     17 C14        13.4860   -3.3720   -5.4070 c3        1 S1P     -0.079400
     18 C15        14.2710   -3.6870   -6.6620 c3        1 S1P     -0.078400
     19 C16        15.5050   -4.5050   -6.3470 c3        1 S1P     -0.079400
     20 C17        16.2920   -4.8220   -7.6010 c3        1 S1P     -0.080400
     21 C18        17.5220   -5.6360   -7.2930 c3        1 S1P     -0.092100
     22 P22        -0.6490   -1.4550    1.8530 p5        1 S1P      1.421800
     23 O23        -0.7550   -1.8200    3.2790 o         1 S1P     -0.829500
     24 O24        -1.3350   -2.0720    0.7030 o         1 S1P     -0.829500
     25 O25        -0.9180    0.1640    1.8480 oh        1 S1P     -0.794400
     26 H1          0.3390   -1.1290   -0.4930 h1        1 S1P      0.041200
     27 H1A         1.9590   -1.9460   -0.2060 h1        1 S1P      0.041200
     28 H2          3.0200    0.1280    0.4980 h1        1 S1P      0.061700
     29 HN2        -0.9200    0.5230    2.7270 ho        1 S1P      0.425000
     30 HN2A        1.3200    1.3150    1.4840 hn        1 S1P      0.356800
     31 H3          1.3770    0.2910   -2.1400 h1        1 S1P      0.038700
     32 HO3         3.5100   -0.5390   -2.7930 ho        1 S1P      0.389000
     33 H4          2.1980    2.4930   -2.0330 ha        1 S1P      0.125000
     34 H5          4.5280    3.0710   -2.1780 ha        1 S1P      0.103000
     35 H6          5.0750    0.1920   -1.1610 hc        1 S1P      0.058700
     36 H6A         6.0750    1.6730   -0.8940 hc        1 S1P      0.058700
     37 H7          6.5050    1.8170   -3.3880 hc        1 S1P      0.032700
     38 H7A         5.5500    0.3020   -3.6210 hc        1 S1P      0.032700
     39 H8          8.0820    0.5860   -1.8570 hc        1 S1P      0.042700
     40 H8A         7.1220   -0.9260   -2.0850 hc        1 S1P      0.042700
     41 H9          8.5230    0.6780   -4.3370 hc        1 S1P      0.036200
     42 H9A         7.5660   -0.8360   -4.5620 hc        1 S1P      0.036200
     43 H10        10.1000   -0.5460   -2.8010 hc        1 S1P      0.040200
     44 H10A        9.1420   -2.0600   -3.0250 hc        1 S1P      0.040200
     45 H11        10.5390   -0.4590   -5.2810 hc        1 S1P      0.037700
     46 H11A        9.5840   -1.9740   -5.5030 hc        1 S1P      0.037700
     47 H12        12.1180   -1.6790   -3.7440 hc        1 S1P      0.040200
     48 H12A       11.1620   -3.1940   -3.9650 hc        1 S1P      0.040200
     49 H13        11.6020   -3.1120   -6.4420 hc        1 S1P      0.038700
     50 H13A       12.5560   -1.5950   -6.2240 hc        1 S1P      0.038700
     51 H14        14.1370   -2.8110   -4.6860 hc        1 S1P      0.039700
     52 H14A       13.1820   -4.3280   -4.9030 hc        1 S1P      0.039700
     53 H15        13.6200   -4.2490   -7.3820 hc        1 S1P      0.038700
     54 H15A       14.5730   -2.7310   -7.1660 hc        1 S1P      0.038700
     55 H16        16.1560   -3.9430   -5.6270 hc        1 S1P      0.039200
     56 H16A       15.2040   -5.4610   -5.8420 hc        1 S1P      0.039200
     57 H17        16.5900   -3.8650   -8.1060 hc        1 S1P      0.038200
     58 H17A       15.6380   -5.3830   -8.3200 hc        1 S1P      0.038200
     59 H18        18.1970   -5.0810   -6.5970 hc        1 S1P      0.031367
     60 H18A       18.0860   -5.8580   -8.2300 hc        1 S1P      0.031367
     61 H18B       17.2430   -6.6040   -6.8110 hc        1 S1P      0.031367
     62 H23         0.4040    1.4080    0.1570 hn        1 S1P      0.356800
@<TRIPOS>BOND
     1    1    2 1   
     2    1    3 1   
     3    1   26 1   
     4    1   27 1   
     5    2   22 1   
     6    3    4 1   
     7    3    5 1   
     8    3   28 1   
     9    4   30 1   
    10    4   62 1   
    11    5    6 1   
    12    5    7 1   
    13    5   31 1   
    14    6   32 1   
    15    7    8 2   
    16    7   33 1   
    17    8    9 1   
    18    8   34 1   
    19    9   10 1   
    20    9   35 1   
    21    9   36 1   
    22   10   11 1   
    23   10   37 1   
    24   10   38 1   
    25   11   12 1   
    26   11   39 1   
    27   11   40 1   
    28   12   13 1   
    29   12   41 1   
    30   12   42 1   
    31   13   14 1   
    32   13   43 1   
    33   13   44 1   
    34   14   15 1   
    35   14   45 1   
    36   14   46 1   
    37   15   16 1   
    38   15   47 1   
    39   15   48 1   
    40   16   17 1   
    41   16   49 1   
    42   16   50 1   
    43   17   18 1   
    44   17   51 1   
    45   17   52 1   
    46   18   19 1   
    47   18   53 1   
    48   18   54 1   
    49   19   20 1   
    50   19   55 1   
    51   19   56 1   
    52   20   21 1   
    53   20   57 1   
    54   20   58 1   
    55   21   59 1   
    56   21   60 1   
    57   21   61 1   
    58   22   23 1   
    59   22   24 1   
    60   22   25 1   
    61   25   29 1   
@<TRIPOS>SUBSTRUCTURE
     1 S1P         1 TEMP              0 ****  ****    0 ROOT
