@<TRIPOS>MOLECULE
molecule
   62    61     1     0     0
SMALL
bcc


@<TRIPOS>ATOM
      1 C1           0.0000     0.0000     0.0000 c3         1 S1P       0.189400
      2 O1          -0.4760    -1.2220     0.5690 os         1 S1P      -0.569200
      3 C2           1.5300     0.0000     0.0000 c3         1 S1P       0.083500
      4 N2           2.0210     0.0000     1.3840 nz         1 S1P      -0.798600
      5 C3           2.0390     1.2500    -0.7210 c3         1 S1P       0.171300
      6 O3           1.5630     1.2500    -2.0690 oh         1 S1P      -0.564800
      7 C4           3.5470     1.2500    -0.7220 c2         1 S1P      -0.275200
      8 C5           4.2010     1.3490    -1.8520 c2         1 S1P      -0.104200
      9 C6           5.7080     1.3490    -1.8520 c3         1 S1P      -0.058200
     10 C7           6.2180     0.2450    -2.7810 c3         1 S1P      -0.077400
     11 C8           7.7480     0.2450    -2.7820 c3         1 S1P      -0.082400
     12 C9           8.2580    -0.8600    -3.7090 c3         1 S1P      -0.081400
     13 C10          9.7880    -0.8590    -3.7100 c3         1 S1P      -0.081400
     14 C11         10.2980    -1.9640    -4.6380 c3         1 S1P      -0.082400
     15 C12         11.8280    -1.9640    -4.6380 c3         1 S1P      -0.081400
     16 C13         12.3380    -3.0680    -5.5660 c3         1 S1P      -0.082400
     17 C14         13.8680    -3.0680    -5.5670 c3         1 S1P      -0.081400
     18 C15         14.3770    -4.1730    -6.4940 c3         1 S1P      -0.082400
     19 C16         15.9070    -4.1720    -6.4950 c3         1 S1P      -0.081400
     20 C17         16.4170    -5.2770    -7.4230 c3         1 S1P      -0.084400
     21 C18         17.9470    -5.2770    -7.4230 c3         1 S1P      -0.092100
     22 P22         -2.0410    -1.5640     0.7290 p5         1 S1P       1.102900
     23 O23         -2.2080    -2.9530     1.5230 o          1 S1P      -0.865500
     24 O24         -2.7140    -1.6930    -0.7280 o          1 S1P      -0.865500
     25 O25         -2.7080    -0.4800     1.4860 o          1 S1P      -0.865500
     26 H1          -0.3610     0.0890    -1.0170 h1         1 S1P       0.058700
     27 H1A         -0.3610     0.8370     0.5860 h1         1 S1P       0.058700
     28 H2           1.8910    -0.8840    -0.5110 hx         1 S1P       0.126700
     29 HN2          2.6470    -0.7690     1.5160 hn         1 S1P       0.445467
     30 HN2A         1.2470    -0.0890     2.0130 hn         1 S1P       0.445467
     31 H3           1.6780     2.1340    -0.2100 h1         1 S1P       0.044700
     32 HO3          1.2610     2.1140    -2.2950 ho         1 S1P       0.418000
     33 H4           4.0890     1.1670     0.2130 ha         1 S1P       0.104000
     34 H5           3.6590     1.4310    -2.7860 ha         1 S1P       0.156000
     35 H6           6.0690     1.1710    -0.8470 hc         1 S1P       0.046200
     36 H6A          6.0690     2.3090    -2.2010 hc         1 S1P       0.046200
     37 H7           5.8580    -0.7150    -2.4320 hc         1 S1P       0.050700
     38 H7A          5.8570     0.4230    -3.7860 hc         1 S1P       0.050700
     39 H8           8.1090     1.2050    -3.1310 hc         1 S1P       0.039200
     40 H8A          8.1100     0.0680    -1.7760 hc         1 S1P       0.039200
     41 H9           7.8970    -1.8200    -3.3580 hc         1 S1P       0.045200
     42 H9A          7.8960    -0.6840    -4.7140 hc         1 S1P       0.045200
     43 H10         10.1490     0.1010    -4.0600 hc         1 S1P       0.039700
     44 H10A        10.1500    -1.0370    -2.7040 hc         1 S1P       0.039700
     45 H11          9.9360    -1.7860    -5.6430 hc         1 S1P       0.043200
     46 H11A         9.9360    -2.9240    -4.2890 hc         1 S1P       0.043200
     47 H12         12.1890    -2.1430    -3.6320 hc         1 S1P       0.039700
     48 H12A        12.1890    -1.0040    -4.9860 hc         1 S1P       0.039700
     49 H13         11.9760    -2.8900    -6.5720 hc         1 S1P       0.042200
     50 H13A        11.9770    -4.0290    -5.2170 hc         1 S1P       0.042200
     51 H14         14.2290    -3.2450    -4.5610 hc         1 S1P       0.040200
     52 H14A        14.2280    -2.1090    -5.9170 hc         1 S1P       0.040200
     53 H15         14.0150    -3.9970    -7.5000 hc         1 S1P       0.041700
     54 H15A        14.0170    -5.1330    -6.1440 hc         1 S1P       0.041700
     55 H16         16.2670    -3.2120    -6.8440 hc         1 S1P       0.040200
     56 H16A        16.2690    -4.3500    -5.4890 hc         1 S1P       0.040200
     57 H17         16.0560    -5.1000    -8.4290 hc         1 S1P       0.040200
     58 H17A        16.0560    -6.2370    -7.0740 hc         1 S1P       0.040200
     59 H18         18.3080    -5.4510    -6.4170 hc         1 S1P       0.031700
     60 H18A        18.3080    -4.3190    -7.7760 hc         1 S1P       0.031700
     61 H18B        18.3080    -6.0620    -8.0770 hc         1 S1P       0.031700
     62 H23          2.5050     0.8570     1.5670 hn         1 S1P       0.445467
@<TRIPOS>BOND
     1     3     1 1
     2     2     1 1
     3     1    26 1
     4     1    27 1
     5     2    22 1
     6     5     3 1
     7     4     3 1
     8     3    28 1
     9     4    29 1
    10     4    30 1
    11     7     5 1
    12     5     6 1
    13     5    31 1
    14     6    32 1
    15     8     7 2
    16     7    33 1
    17     9     8 1
    18     8    34 1
    19    10     9 1
    20     9    35 1
    21     9    36 1
    22    11    10 1
    23    10    37 1
    24    10    38 1
    25    11    12 1
    26    11    39 1
    27    11    40 1
    28    13    12 1
    29    12    41 1
    30    12    42 1
    31    14    13 1
    32    13    43 1
    33    13    44 1
    34    15    14 1
    35    14    45 1
    36    14    46 1
    37    15    16 1
    38    15    47 1
    39    15    48 1
    40    17    16 1
    41    16    49 1
    42    16    50 1
    43    17    18 1
    44    17    51 1
    45    17    52 1
    46    18    19 1
    47    18    53 1
    48    18    54 1
    49    19    20 1
    50    19    55 1
    51    19    56 1
    52    20    21 1
    53    20    57 1
    54    20    58 1
    55    21    59 1
    56    21    60 1
    57    21    61 1
    58    25    22 1
    59    24    22 1
    60    22    23 1
    61    62     4 1
@<TRIPOS>SUBSTRUCTURE
     1 S1P         1 TEMP              0 ****  ****    0 ROOT
