@<TRIPOS>MOLECULE
molecule
   49    50     1     0     0
SMALL
bcc


@<TRIPOS>ATOM
      1 N1'          0.0000     0.0000     0.0000 nb         1 S1T      -0.736000
      2 C2'          1.3180     0.0000     0.0000 ca         1 S1T       0.628300
      3 CM2          2.0510     0.0010    -1.3170 c3         1 S1T      -0.108400
      4 N3'          2.0120     0.0000     1.1200 nb         1 S1T      -0.770000
      5 C4'          1.3980    -0.0010     2.2990 ca         1 S1T       0.657200
      6 N4'          2.1310     0.0000     3.4750 nv         1 S1T      -1.080500
      7 C5'          0.0020    -0.0010     2.3350 ca         1 S1T      -0.379900
      8 C6'         -0.6830    -0.0010     1.1360 ca         1 S1T       0.484200
      9 C7'         -0.7370    -0.0010     3.6480 c3         1 S1T       0.053200
     10 C3          -2.2180    -0.1200     3.3900 cc         1 S1T      -0.095300
     11 C2          -2.8420    -1.2970     3.3240 cd         1 S1T      -0.081400
     12 S1          -4.5540    -1.0400     3.0110 ss         1 S1T      -0.127800
     13 C5          -4.3170     0.7030     2.9870 cd         1 S1T       0.036600
     14 C4          -3.0330     0.9850     3.2100 cc         1 S1T      -0.149300
     15 CM4         -2.5080     2.3960     3.2570 c3         1 S1T      -0.023800
     16 C6          -5.4030     1.7240     2.7570 c3         1 S1T      -0.033100
     17 C7          -5.5190     2.0150     1.2600 c3         1 S1T       0.237400
     18 O7          -6.5480     2.9820     1.0410 os         1 S1T      -0.599200
     19 PA          -6.9440     3.5260    -0.4220 p5         1 S1T       1.420800
     20 O1A         -7.2750     2.3820    -1.3000 o          1 S1T      -0.855500
     21 O2A         -5.7040     4.3410    -1.0460 o          1 S1T      -0.855500
     22 O3A         -8.2210     4.4990    -0.3040 os         1 S1T      -0.713800
     23 PB          -9.3280     5.0210    -1.3500 p5         1 S1T       1.308900
     24 O1B         -9.8060     3.8870    -2.1720 o          1 S1T      -0.887833
     25 O2B        -10.5680     5.6590    -0.5450 o          1 S1T      -0.887833
     26 O3B         -8.6780     6.1410    -2.3080 o          1 S1T      -0.887833
     27 CP1         -2.1820    -2.6410     3.4910 c3         1 S1T       0.227400
     28 CP2         -2.0450    -3.3160     2.1240 c3         1 S1T      -0.119100
     29 OP1         -2.9780    -3.4600     4.3480 oh         1 S1T      -0.605800
     30 HP1         -2.4190    -4.0470     4.8300 ho         1 S1T       0.382000
     31 H1          -1.2000    -2.5090     3.9280 h1         1 S1T       0.030700
     32 H61         -6.3460     1.3370     3.1240 hc         1 S1T       0.056700
     33 H62         -5.1580     2.6370     3.2850 hc         1 S1T       0.056700
     34 H71         -5.7640     1.1010     0.7320 h1         1 S1T       0.024700
     35 H72         -4.5760     2.4020     0.8930 h1         1 S1T       0.024700
     36 HM41        -3.2700     3.0510     3.6640 hc         1 S1T       0.043700
     37 HM42        -1.6270     2.4330     3.8860 hc         1 S1T       0.043700
     38 HM43        -2.2510     2.7200     2.2560 hc         1 S1T       0.043700
     39 H7'1        -0.5350     0.9230     4.1760 hc         1 S1T       0.041200
     40 H7'2        -0.4060    -0.8400     4.2490 hc         1 S1T       0.041200
     41 H6'         -1.7660    -0.0010     1.1240 h4         1 S1T       0.056100
     42 HM21         2.4810    -0.9780    -1.4910 hc         1 S1T       0.042700
     43 HM22         1.3590     0.2390    -2.1160 hc         1 S1T       0.042700
     44 HM23         2.8410     0.7420    -1.2900 hc         1 S1T       0.042700
     45 H4'1         2.4300    -0.8650     3.8790 hn         1 S1T       0.418300
     46 H4'2         2.3550     0.8660     3.9250 hn         1 S1T       0.418300
     47 HP21        -2.5920    -4.2510     2.1260 hc         1 S1T       0.044700
     48 HP22        -2.4470    -2.6640     1.3570 hc         1 S1T       0.044700
     49 HP23        -0.9990    -3.5100     1.9200 hc         1 S1T       0.044700
@<TRIPOS>BOND
     1     1     2 ar
     2     1     8 ar
     3     2     4 ar
     4     2     3 1
     5     3    42 1
     6     3    43 1
     7     3    44 1
     8     4     5 ar
     9     5     7 ar
    10     5     6 1
    11     6    45 1
    12     6    46 1
    13     7     9 1
    14     7     8 ar
    15     8    41 1
    16     9    10 1
    17     9    39 1
    18     9    40 1
    19    10    11 2
    20    10    14 1
    21    11    27 1
    22    11    12 1
    23    12    13 1
    24    13    14 2
    25    13    16 1
    26    14    15 1
    27    15    36 1
    28    15    37 1
    29    15    38 1
    30    16    32 1
    31    16    33 1
    32    16    17 1
    33    17    34 1
    34    17    35 1
    35    17    18 1
    36    18    19 1
    37    19    20 1
    38    19    21 1
    39    19    22 1
    40    22    23 1
    41    23    24 1
    42    23    25 1
    43    23    26 1
    44    27    29 1
    45    27    31 1
    46    27    28 1
    47    28    47 1
    48    28    48 1
    49    28    49 1
    50    29    30 1
@<TRIPOS>SUBSTRUCTURE
     1 S1T         1 TEMP              0 ****  ****    0 ROOT
