@<TRIPOS>MOLECULE
S1Y
   52    53     1     0     0
SMALL
bcc


@<TRIPOS>ATOM
      1 S1           0.0000     0.0000     0.0000 s6         1 S1Y       1.106700
      2 O2           1.5230     0.0000     0.0000 o          1 S1Y      -0.647200
      3 O3          -0.4020     0.0000     1.3630 o          1 S1Y      -0.647200
      4 O4          -0.4010    -0.9980    -0.9290 o          1 S1Y      -0.647200
      5 N5          -0.4900     1.4510    -0.6320 n7         1 S1Y      -0.639100
      6 C6          -0.1930     1.7790    -2.0280 c3         1 S1Y       0.238500
      7 C7           1.0160     2.7450    -2.1220 c3         1 S1Y      -0.061400
      8 C8           0.3380     4.1160    -1.8730 c3         1 S1Y       0.037000
      9 N9          -0.9690     4.0190    -2.5490 n          1 S1Y      -0.158800
     10 C10         -1.3420     2.6010    -2.6510 c3         1 S1Y      -0.108300
     11 C11         -2.6200     2.3510    -1.8940 c          1 S1Y       0.675900
     12 O12         -3.5490     1.8060    -2.4390 o          1 S1Y      -0.548100
     13 C13         -1.6990     5.0580    -2.9990 c          1 S1Y       0.606100
     14 O14         -2.7690     4.8580    -3.5430 o          1 S1Y      -0.718100
     15 N15         -1.2470     6.3180    -2.8440 ns         1 S1Y      -0.235900
     16 C16         -2.0420     7.4470    -3.3320 c3         1 S1Y       0.041700
     17 C17         -3.0440     7.8490    -2.2850 c3         1 S1Y      -0.046400
     18 C18         -4.3530     8.4030    -2.8830 c3         1 S1Y      -0.005400
     19 C19         -4.0990     9.3420    -4.0780 c3         1 S1Y       0.127800
     20 N20         -2.9770    10.2170    -3.8460 n3         1 S1Y      -0.513600
     21 C21         -3.2440    11.5650    -4.3680 c3         1 S1Y       0.152800
     22 C22         -4.3780    12.2070    -3.5650 c3         1 S1Y      -0.075200
     23 N23         -4.6450    13.5540    -4.0860 nz         1 S1Y       0.091400
     24 C24         -1.7660     9.6410    -4.4660 c3         1 S1Y       0.164800
     25 C25         -1.1130     8.6470    -3.6210 c3         1 S1Y      -0.050400
     26 HN5         -0.9560     2.1180    -0.0500 hn         1 S1Y       0.310800
     27 H6          -0.0090     0.8820    -2.6080 h1         1 S1Y       0.073700
     28 H7           1.7430     2.5290    -1.3480 hc         1 S1Y       0.043200
     29 H7A          1.4630     2.7090    -3.1070 hc         1 S1Y       0.043200
     30 H8           0.2000     4.2800    -0.8110 h1         1 S1Y       0.007200
     31 H8A          0.9290     4.9120    -2.3100 h1         1 S1Y       0.007200
     32 H10         -1.4660     2.3280    -3.6920 h1         1 S1Y       0.053700
     33 H11         -2.7190     2.6960    -0.8710 h4         1 S1Y      -0.039800
     34 HN15        -0.3700     6.4820    -2.3900 hn         1 S1Y       0.178500
     35 H16         -2.5610     7.1660    -4.2400 h1         1 S1Y       0.059700
     36 H17         -3.2790     6.9820    -1.6790 hc         1 S1Y       0.032200
     37 H17A        -2.6010     8.6110    -1.6550 hc         1 S1Y       0.032200
     38 H18         -4.8840     8.9520    -2.1140 hc         1 S1Y       0.021700
     39 H18A        -4.9650     7.5730    -3.2140 hc         1 S1Y       0.021700
     40 H19         -3.9010     8.7430    -4.9590 h1         1 S1Y       0.010700
     41 H19A        -4.9840     9.9430    -4.2460 h1         1 S1Y       0.010700
     42 H21         -3.5330    11.4980    -5.4100 h1         1 S1Y       0.020200
     43 H21A        -2.3510    12.1710    -4.2780 h1         1 S1Y       0.020200
     44 H22         -4.0900    12.2740    -2.5230 hx         1 S1Y       0.098700
     45 H22A        -5.2720    11.6010    -3.6540 hx         1 S1Y       0.098700
     46 HN23        -3.8150    14.1080    -4.0200 hn         1 S1Y       0.220133
     47 HN2A        -4.9290    13.4910    -5.0440 hn         1 S1Y       0.220133
     48 H24         -2.0440     9.1710    -5.4020 h1         1 S1Y       0.014200
     49 H24A        -1.0640    10.4410    -4.6670 h1         1 S1Y       0.014200
     50 H25         -0.2210     8.2900    -4.1220 hc         1 S1Y       0.033700
     51 H25A        -0.8350     9.1120    -2.6830 hc         1 S1Y       0.033700
     52 H233        -5.3980    13.9670    -3.5720 hn         1 S1Y       0.220133
@<TRIPOS>BOND
     1     1     2 1   
     2     1     3 1   
     3     1     4 1   
     4     1     5 1   
     5     5     6 1   
     6     5    26 1   
     7     6     7 1   
     8     6    10 1   
     9     6    27 1   
    10     7     8 1   
    11     7    28 1   
    12     7    29 1   
    13     8     9 1   
    14     8    30 1   
    15     8    31 1   
    16     9    10 1   
    17     9    13 1   
    18    10    11 1   
    19    10    32 1   
    20    11    12 2   
    21    11    33 1   
    22    13    14 2   
    23    13    15 1   
    24    15    16 1   
    25    15    34 1   
    26    16    17 1   
    27    16    25 1   
    28    16    35 1   
    29    17    18 1   
    30    17    36 1   
    31    17    37 1   
    32    18    19 1   
    33    18    38 1   
    34    18    39 1   
    35    19    20 1   
    36    19    40 1   
    37    19    41 1   
    38    20    21 1   
    39    20    24 1   
    40    21    22 1   
    41    21    42 1   
    42    21    43 1   
    43    22    23 1   
    44    22    44 1   
    45    22    45 1   
    46    23    46 1   
    47    23    47 1   
    48    23    52 1   
    49    24    25 1   
    50    24    48 1   
    51    24    49 1   
    52    25    50 1   
    53    25    51 1   
@<TRIPOS>SUBSTRUCTURE
     1 S1Y         1 TEMP              0 ****  ****    0 ROOT
