@<TRIPOS>MOLECULE
S20
   53    55     1     0     0
SMALL
bcc


@<TRIPOS>ATOM
      1 C1           0.0000     0.0000     0.0000 ca         1 S20      -0.091000
      2 C2           1.3820     0.0000     0.0000 ca         1 S20      -0.095300
      3 C3           2.0730     0.0000     1.1980 ca         1 S20      -0.095000
      4 C4           1.3820     0.0000     2.3950 ca         1 S20      -0.106000
      5 C5          -0.0010     0.0010     2.3940 ca         1 S20      -0.079000
      6 C6          -0.6910     0.0000     1.1970 ca         1 S20      -0.129300
      7 N11          4.2850     0.7830    -3.1460 nb         1 S20      -0.592000
      8 C12          4.9800     0.7560    -4.2720 ca         1 S20       0.501200
      9 N12          6.1760     0.0500    -4.3260 nv         1 S20      -0.659500
     10 C13          4.5240     1.4280    -5.4020 ca         1 S20      -0.230300
     11 C14          3.3330     2.1270    -5.3340 ca         1 S20      -0.053300
     12 C15          2.6340     2.1300    -4.1340 ca         1 S20      -0.224300
     13 C16          3.1450     1.4420    -3.0510 ca         1 S20       0.384600
     14 C19          2.1360     0.0000    -1.3050 c3         1 S20       0.032900
     15 N21         -4.7820     0.9100     0.1380 nb         1 S20      -0.666000
     16 C22         -6.0960     0.8980    -0.0120 ca         1 S20       0.515200
     17 N22         -6.6550     0.3190    -1.1450 nv         1 S20      -0.538500
     18 C23         -6.9240     1.4620     0.9550 ca         1 S20      -0.313300
     19 C24         -6.3540     2.0330     2.0770 ca         1 S20      -0.004300
     20 C25         -4.9710     2.0250     2.1960 ca         1 S20      -0.279300
     21 C26         -4.2110     1.4490     1.1990 ca         1 S20       0.437600
     22 C28         -2.7080     1.4370     1.3230 c3         1 S20      -0.079700
     23 C29         -2.1990    -0.0000     1.1970 c3         1 S20       0.250400
     24 O29         -2.6750    -0.7730     2.2990 oh         1 S20      -0.586800
     25 H1          -0.5420    -0.0010    -0.9380 ha         1 S20       0.108000
     26 H3           3.1560    -0.0010     1.1980 ha         1 S20       0.107000
     27 H4           1.9240     0.0010     3.3330 ha         1 S20       0.102000
     28 H5          -0.5430     0.0010     3.3320 ha         1 S20       0.118000
     29 HN12         7.0340     0.4990    -4.0730 hn         1 S20       0.275300
     30 HN1A         6.1730    -0.9200    -4.5730 hn         1 S20       0.275300
     31 H13          5.0950     1.4040    -6.3220 ha         1 S20       0.120000
     32 H15          1.6970     2.6680    -4.0480 ha         1 S20       0.118000
     33 H17          2.5750     3.8890    -6.2570 hc         1 S20       0.010367
     34 H17A         3.5540     2.8670    -7.3180 hc         1 S20       0.010367
     35 H17B         1.9060     2.3810    -6.8940 hc         1 S20       0.010367
     36 H19          3.0830    -0.5100    -1.1760 hc         1 S20       0.026700
     37 H19A         1.5510    -0.5110    -2.0600 hc         1 S20       0.026700
     38 HN22        -7.6490     0.3090    -1.2630 hn         1 S20       0.268800
     39 HN2A        -6.0640    -0.0800    -1.8460 hn         1 S20       0.268800
     40 H23         -8.0010     1.4510     0.8300 ha         1 S20       0.118000
     41 H25         -4.4930     2.4650     3.0630 ha         1 S20       0.122000
     42 H28         -2.4220     1.8390     2.2870 hc         1 S20       0.032700
     43 H28A        -2.2760     2.0440     0.5360 hc         1 S20       0.032700
     44 H29         -2.5590    -0.4320     0.2710 h1         1 S20       0.020700
     45 HO29        -2.9490    -1.6210     1.9940 ho         1 S20       0.391000
     46 C27         -7.2160     2.6540     3.1470 c3         1 S20       0.060200
     47 C18          2.3920     1.4420    -1.7470 c3         1 S20      -0.067700
     48 C17          2.8050     2.8680    -6.5350 c3         1 S20       0.063200
     49 H18          2.9770     1.9530    -0.9920 hc         1 S20       0.024200
     50 H18A         1.4450     1.9520    -1.8770 hc         1 S20       0.024200
     51 H27         -6.8420     2.3690     4.1230 hc         1 S20       0.009700
     52 H27A        -8.2360     2.3080     3.0350 hc         1 S20       0.009700
     53 H27B        -7.1880     3.7330     3.0510 hc         1 S20       0.009700
@<TRIPOS>BOND
     1     1     2 ar  
     2     1     6 ar  
     3     1    25 1   
     4     2     3 ar  
     5     2    14 1   
     6     3     4 ar  
     7     3    26 1   
     8     4     5 ar  
     9     4    27 1   
    10     5     6 ar  
    11     5    28 1   
    12     6    23 1   
    13     7     8 ar  
    14     7    13 ar  
    15     8     9 1   
    16     8    10 ar  
    17     9    29 1   
    18     9    30 1   
    19    10    11 ar  
    20    10    31 1   
    21    11    12 ar  
    22    11    48 1   
    23    12    13 ar  
    24    12    32 1   
    25    13    47 1   
    26    14    36 1   
    27    14    37 1   
    28    14    47 1   
    29    15    16 ar  
    30    15    21 ar  
    31    16    17 1   
    32    16    18 ar  
    33    17    38 1   
    34    17    39 1   
    35    18    19 ar  
    36    18    40 1   
    37    19    20 ar  
    38    19    46 1   
    39    20    21 ar  
    40    20    41 1   
    41    21    22 1   
    42    22    23 1   
    43    22    42 1   
    44    22    43 1   
    45    23    24 1   
    46    23    44 1   
    47    24    45 1   
    48    33    48 1   
    49    34    48 1   
    50    35    48 1   
    51    46    51 1   
    52    46    52 1   
    53    46    53 1   
    54    47    49 1   
    55    47    50 1   
@<TRIPOS>SUBSTRUCTURE
     1 S20         1 TEMP              0 ****  ****    0 ROOT
