@<TRIPOS>MOLECULE
molecule
   24    24     1     0     0
SMALL
bcc


@<TRIPOS>ATOM
      1 C1           0.0000     0.0000     0.0000 ca         1 S21      -0.089500
      2 C2           1.3790     0.0000     0.0000 ca         1 S21      -0.081500
      3 C3           2.0750     0.0000     1.1960 ca         1 S21      -0.129200
      4 C4           1.3940     0.0000     2.4010 ca         1 S21      -0.081500
      5 C5           0.0160     0.0000     2.4180 ca         1 S21      -0.089500
      6 C6          -0.6950     0.0000     1.2130 ca         1 S21      -0.137600
      7 C7          -2.1670     0.0000     1.2230 c          1 S21       0.564700
      8 O8          -2.7800     0.0000     0.1760 o          1 S21      -0.464100
      9 C9          -2.9120    -0.0000     2.5320 c3         1 S21      -0.271400
     10 C10         -4.3950     0.0000     2.2660 c          1 S21       0.511100
     11 O11         -4.8060     0.0000     1.1310 o          1 S21      -0.397100
     12 C12         -5.3670     0.0000     3.4190 c3         1 S21       0.529900
     13 N13          3.5540    -0.0000     1.1870 no         1 S21       0.289200
     14 F1C         -6.1730    -1.1420     3.3500 f          1 S21      -0.211633
     15 O1N          4.1570    -0.0000     0.1280 o          1 S21      -0.197000
     16 F2C         -4.6600    -0.0000     4.6260 f          1 S21      -0.211633
     17 O2N          4.1710    -0.0000     2.2370 o          1 S21      -0.197000
     18 F3C         -6.1720     1.1420     3.3490 f          1 S21      -0.211633
     19 H1          -0.5430    -0.0000    -0.9370 ha         1 S21       0.160500
     20 H2           1.9180    -0.0000    -0.9390 ha         1 S21       0.173000
     21 H4           1.9460     0.0000     3.3330 ha         1 S21       0.173000
     22 H5          -0.5150    -0.0000     3.3620 ha         1 S21       0.160500
     23 H9          -2.6470    -0.8850     3.0990 hc         1 S21       0.103700
     24 H9A         -2.6470     0.8850     3.0990 hc         1 S21       0.103700
@<TRIPOS>BOND
     1     1     2 ar
     2     1     6 ar
     3     2     3 ar
     4     3     4 ar
     5     3    13 1
     6     4     5 ar
     7     5     6 ar
     8     6     7 1
     9     7     8 2
    10     7     9 1
    11     9    10 1
    12    10    11 2
    13    10    12 1
    14    12    14 1
    15    12    16 1
    16    12    18 1
    17    13    15 1
    18    13    17 1
    19     1    19 1
    20     2    20 1
    21     4    21 1
    22     5    22 1
    23     9    23 1
    24     9    24 1
@<TRIPOS>SUBSTRUCTURE
     1 S21         1 TEMP              0 ****  ****    0 ROOT
