@<TRIPOS>MOLECULE
S21
   24    24     1     0     0
SMALL
bcc


@<TRIPOS>ATOM
      1 C1           0.0000     0.0000     0.0000 ca         1 S21      -0.073500
      2 C2           1.3790     0.0000     0.0000 ca         1 S21      -0.021000
      3 C3           2.0750     0.0000     1.1960 ca         1 S21      -0.423200
      4 C4           1.3940     0.0000     2.4010 ca         1 S21      -0.021000
      5 C5           0.0160     0.0000     2.4180 ca         1 S21      -0.073500
      6 C6          -0.6950     0.0000     1.2130 ca         1 S21      -0.128600
      7 C7          -2.1670     0.0000     1.2230 c          1 S21       0.603700
      8 O8          -2.7800     0.0000     0.1760 o          1 S21      -0.492100
      9 C9          -2.9120    -0.0000     2.5320 c3         1 S21      -0.202400
     10 C10         -4.3950     0.0000     2.2660 c          1 S21       0.526100
     11 O11         -4.8060     0.0000     1.1310 o          1 S21      -0.417100
     12 C12         -5.3670     0.0000     3.4190 c3         1 S21       0.488900
     13 N13          3.5540    -0.0000     1.1870 no         1 S21       1.041200
     14 F1C         -6.1730    -1.1420     3.3500 f          1 S21      -0.195633
     15 O1N          4.1570    -0.0000     0.1280 o          1 S21      -0.443000
     16 F2C         -4.6600    -0.0000     4.6260 f          1 S21      -0.195633
     17 O2N          4.1710    -0.0000     2.2370 o          1 S21      -0.443000
     18 F3C         -6.1720     1.1420     3.3490 f          1 S21      -0.195633
     19 H1          -0.5430    -0.0000    -0.9370 ha         1 S21       0.127500
     20 H2           1.9180    -0.0000    -0.9390 ha         1 S21       0.138000
     21 H4           1.9460     0.0000     3.3330 ha         1 S21       0.138000
     22 H5          -0.5150    -0.0000     3.3620 ha         1 S21       0.127500
     23 H9          -2.6470    -0.8850     3.0990 hc         1 S21       0.067700
     24 H9A         -2.6470     0.8850     3.0990 hc         1 S21       0.067700
@<TRIPOS>BOND
     1     1     2 ar  
     2     1     6 ar  
     3     1    19 1   
     4     2     3 ar  
     5     2    20 1   
     6     3     4 ar  
     7     3    13 1   
     8     4     5 ar  
     9     4    21 1   
    10     5     6 ar  
    11     5    22 1   
    12     6     7 1   
    13     7     8 2   
    14     7     9 1   
    15     9    10 1   
    16     9    23 1   
    17     9    24 1   
    18    10    11 2   
    19    10    12 1   
    20    12    14 1   
    21    12    16 1   
    22    12    18 1   
    23    13    15 1   
    24    13    17 1   
@<TRIPOS>SUBSTRUCTURE
     1 S21         1 TEMP              0 ****  ****    0 ROOT
