@<TRIPOS>MOLECULE
S22
   71    75     1     0     0
SMALL
bcc


@<TRIPOS>ATOM
      1 CAT          0.0000     0.0000     0.0000 c3         1 S22       0.141800
      2 CAU          1.5300     0.0000     0.0000 c3         1 S22      -0.047400
      3 CAV          2.0360     0.0000     1.4460 c3         1 S22       0.189100
      4 OAY          3.4640     0.0560     1.4520 oh         1 S22      -0.581800
      5 CAW          1.4710     1.2220     2.1750 c3         1 S22      -0.047400
      6 CAX         -0.0570     1.1880     2.1120 c3         1 S22       0.141800
      7 NAS         -0.4900     1.1900     0.7080 nh         1 S22      -0.359000
      8 CAN         -1.8830     1.2910     0.6130 ca         1 S22       0.050600
      9 CAO         -2.5440     2.3510     1.2190 ca         1 S22      -0.227000
     10 CAP         -3.9220     2.4510     1.1250 ca         1 S22       0.148100
     11 OAQ         -4.5710     3.4890     1.7170 os         1 S22      -0.314900
     12 CAR         -3.7690     4.4400     2.4200 c3         1 S22       0.246700
     13 CAM         -2.6020     0.3350    -0.0920 ca         1 S22      -0.196000
     14 CAL         -3.9770     0.4340    -0.1870 ca         1 S22      -0.040000
     15 CAK         -4.6420     1.4880     0.4220 ca         1 S22      -0.055400
     16 NAJ         -6.0380     1.5870     0.3250 nu         1 S22      -0.309300
     17 CAA         -6.6710     1.3200    -0.8830 ca         1 S22       0.525200
     18 CAB         -8.0380     1.5530    -1.0010 ca         1 S22      -0.321300
     19 NAF         -5.9610     0.8540    -1.8970 nb         1 S22      -0.655000
     20 CAE         -6.5160     0.5820    -3.0750 ca         1 S22       0.285800
     21 NAI         -6.0120     0.1020    -4.2590 na         1 S22       0.251900
     22 CAH         -7.0160    -0.0020    -5.1880 cc         1 S22      -0.282100
     23 CAG         -8.1770     0.3980    -4.6480 cd         1 S22      -0.120200
     24 CAD         -7.8910     0.7880    -3.2660 ca         1 S22      -0.279100
     25 CAC         -8.6710     1.2870    -2.2080 ca         1 S22       0.126600
     26 NAZ        -10.0350     1.5070    -2.3650 nu         1 S22      -0.270000
     27 CBA        -10.9120     0.4230    -2.4560 ca         1 S22       0.145600
     28 CBF        -10.4410    -0.8700    -2.2700 ca         1 S22      -0.206000
     29 CBE        -11.3110    -1.9390    -2.3610 ca         1 S22      -0.006000
     30 CBD        -12.6490    -1.7240    -2.6380 ca         1 S22      -0.193000
     31 CBC        -13.1200    -0.4370    -2.8240 ca         1 S22       0.048000
     32 CBB        -12.2580     0.6370    -2.7290 ca         1 S22      -0.228500
     33 SBG        -12.8610     2.2770    -2.9590 sy         1 S22       0.879300
     34 OBH        -11.9840     2.8400    -3.9240 o          1 S22      -0.587800
     35 OBI        -14.2440     2.1040    -3.2370 o          1 S22      -0.587800
     36 CBJ        -12.6310     3.0740    -1.3460 c3         1 S22      -0.026900
     37 CBL        -13.2360     4.4790    -1.3820 c3         1 S22       0.030900
     38 CBK        -13.3250     2.2470    -0.2640 c3         1 S22       0.030900
     39 HAT         -0.3600     0.0160    -1.0220 h1         1 S22       0.017950
     40 HATA        -0.3600    -0.8900     0.5010 h1         1 S22       0.017950
     41 HAU          1.8910     0.8860    -0.5080 hc         1 S22       0.029450
     42 HAUA         1.8910    -0.8860    -0.5080 hc         1 S22       0.029450
     43 HAV          1.7020    -0.9020     1.9440 h1         1 S22      -0.004300
     44 HOAY         3.8060    -0.7050     1.8910 ho         1 S22       0.387000
     45 HAW          1.8310     2.1250     1.6970 hc         1 S22       0.029450
     46 HAWA         1.7900     1.2030     3.2100 hc         1 S22       0.029450
     47 HAX         -0.4570     2.0600     2.6130 h1         1 S22       0.017950
     48 HAXA        -0.4160     0.2890     2.5980 h1         1 S22       0.017950
     49 HAO         -1.9780     3.1270     1.7200 ha         1 S22       0.133000
     50 HAR         -3.2470     3.9440     3.2280 h1         1 S22      -0.001633
     51 HARA        -4.4040     5.2190     2.8240 h1         1 S22      -0.001633
     52 HARB        -3.0490     4.8780     1.7390 h1         1 S22      -0.001633
     53 HAM         -2.0840    -0.4890    -0.5690 ha         1 S22       0.123000
     54 HAL         -4.5370    -0.3140    -0.7360 ha         1 S22       0.133000
     55 HNAJ        -6.5800     1.8180     1.1330 hn         1 S22       0.289800
     56 HAB         -8.5670     2.0810    -0.2170 ha         1 S22       0.120000
     57 HNAI        -5.0540    -0.1370    -4.4200 hn         1 S22       0.117700
     58 HAH         -6.8900    -0.3550    -6.2040 h4         1 S22       0.143000
     59 HAG         -9.1420     0.4270    -5.1400 ha         1 S22       0.140000
     60 HNAZ       -10.3840     2.4410    -2.4500 hn         1 S22       0.312800
     61 HBF         -9.3940    -1.0400    -2.0530 ha         1 S22       0.129000
     62 HBE        -10.9440    -2.9480    -2.2160 ha         1 S22       0.097000
     63 HBD        -13.3280    -2.5640    -2.7120 ha         1 S22       0.109000
     64 HBC        -14.1690    -0.2710    -3.0390 ha         1 S22       0.127000
     65 HBJ        -11.5730     3.1430    -1.1250 h1         1 S22       0.067700
     66 HBL        -13.0170     4.9910    -0.4520 hc         1 S22       0.014867
     67 HBLA       -12.8110     5.0350    -2.2090 hc         1 S22       0.014867
     68 HBLB       -14.3100     4.4070    -1.5090 hc         1 S22       0.014867
     69 HBK        -13.4320     2.8440     0.6340 hc         1 S22       0.014867
     70 HBKA       -14.3040     1.9420    -0.6140 hc         1 S22       0.014867
     71 HBKB       -12.7310     1.3680    -0.0440 hc         1 S22       0.014867
@<TRIPOS>BOND
     1     1     2 1   
     2     1     7 1   
     3     1    39 1   
     4     1    40 1   
     5     2     3 1   
     6     2    41 1   
     7     2    42 1   
     8     3     4 1   
     9     3     5 1   
    10     3    43 1   
    11     4    44 1   
    12     5     6 1   
    13     5    45 1   
    14     5    46 1   
    15     6     7 1   
    16     6    47 1   
    17     6    48 1   
    18     7     8 1   
    19     8     9 ar  
    20     8    13 ar  
    21     9    10 ar  
    22     9    49 1   
    23    10    11 1   
    24    10    15 ar  
    25    11    12 1   
    26    12    50 1   
    27    12    51 1   
    28    12    52 1   
    29    13    14 ar  
    30    13    53 1   
    31    14    15 ar  
    32    14    54 1   
    33    15    16 1   
    34    16    17 1   
    35    16    55 1   
    36    17    18 ar  
    37    17    19 ar  
    38    18    25 ar  
    39    18    56 1   
    40    19    20 ar  
    41    20    21 1   
    42    20    24 ar  
    43    21    22 1   
    44    21    57 1   
    45    22    23 2   
    46    22    58 1   
    47    23    24 1   
    48    23    59 1   
    49    24    25 ar  
    50    25    26 1   
    51    26    27 1   
    52    26    60 1   
    53    27    28 ar  
    54    27    32 ar  
    55    28    29 ar  
    56    28    61 1   
    57    29    30 ar  
    58    29    62 1   
    59    30    31 ar  
    60    30    63 1   
    61    31    32 ar  
    62    31    64 1   
    63    32    33 1   
    64    33    34 2   
    65    33    35 2   
    66    33    36 1   
    67    36    37 1   
    68    36    38 1   
    69    36    65 1   
    70    37    66 1   
    71    37    67 1   
    72    37    68 1   
    73    38    69 1   
    74    38    70 1   
    75    38    71 1   
@<TRIPOS>SUBSTRUCTURE
     1 S22         1 TEMP              0 ****  ****    0 ROOT
