@<TRIPOS>MOLECULE
molecule
   71    75     1     0     0
SMALL
bcc


@<TRIPOS>ATOM
      1 CAT          0.0000     0.0000     0.0000 c3         1 S22       0.166800
      2 CAU          1.5300     0.0000     0.0000 c3         1 S22      -0.092900
      3 CAV          2.0360     0.0000     1.4460 c3         1 S22       0.145100
      4 OAY          3.4640     0.0560     1.4520 oh         1 S22      -0.602800
      5 CAW          1.4710     1.2220     2.1750 c3         1 S22      -0.092900
      6 CAX         -0.0570     1.1880     2.1120 c3         1 S22       0.166800
      7 NAS         -0.4900     1.1900     0.7080 nh         1 S22      -0.594000
      8 CAN         -1.8830     1.2910     0.6130 ca         1 S22       0.126600
      9 CAO         -2.5440     2.3510     1.2190 ca         1 S22      -0.234000
     10 CAP         -3.9220     2.4510     1.1250 ca         1 S22       0.133100
     11 OAQ         -4.5710     3.4890     1.7170 os         1 S22      -0.333900
     12 CAR         -3.7690     4.4400     2.4200 c3         1 S22       0.129700
     13 CAM         -2.6020     0.3350    -0.0920 ca         1 S22      -0.211000
     14 CAL         -3.9770     0.4340    -0.1870 ca         1 S22      -0.063000
     15 CAK         -4.6420     1.4880     0.4220 ca         1 S22       0.103600
     16 NAJ         -6.0380     1.5870     0.3250 nu         1 S22      -0.768300
     17 CAA         -6.6710     1.3200    -0.8830 ca         1 S22       0.735200
     18 CAB         -8.0380     1.5530    -1.0010 ca         1 S22      -0.346300
     19 NAF         -5.9610     0.8540    -1.8970 nb         1 S22      -0.791000
     20 CAE         -6.5160     0.5820    -3.0750 ca         1 S22       0.518800
     21 NAI         -6.0120     0.1020    -4.2590 na         1 S22      -0.283100
     22 CAH         -7.0160    -0.0020    -5.1880 cc         1 S22      -0.115100
     23 CAG         -8.1770     0.3980    -4.6480 cd         1 S22      -0.161200
     24 CAD         -7.8910     0.7880    -3.2660 ca         1 S22      -0.278100
     25 CAC         -8.6710     1.2870    -2.2080 ca         1 S22       0.255600
     26 NAZ        -10.0350     1.5070    -2.3650 nu         1 S22      -0.697000
     27 CBA        -10.9120     0.4230    -2.4560 ca         1 S22       0.285600
     28 CBF        -10.4410    -0.8700    -2.2700 ca         1 S22      -0.207000
     29 CBE        -11.3110    -1.9390    -2.3610 ca         1 S22      -0.040000
     30 CBD        -12.6490    -1.7240    -2.6380 ca         1 S22      -0.201000
     31 CBC        -13.1200    -0.4370    -2.8240 ca         1 S22       0.008000
     32 CBB        -12.2580     0.6370    -2.7290 ca         1 S22      -0.363500
     33 SBG        -12.8610     2.2770    -2.9590 sy         1 S22       1.199300
     34 OBH        -11.9840     2.8400    -3.9240 o          1 S22      -0.622800
     35 OBI        -14.2440     2.1040    -3.2370 o          1 S22      -0.622800
     36 CBJ        -12.6310     3.0740    -1.3460 c3         1 S22      -0.197900
     37 CBL        -13.2360     4.4790    -1.3820 c3         1 S22      -0.072100
     38 CBK        -13.3250     2.2470    -0.2640 c3         1 S22      -0.072100
     39 HAT         -0.3600     0.0160    -1.0220 h1         1 S22       0.042950
     40 HATA        -0.3600    -0.8900     0.5010 h1         1 S22       0.042950
     41 HAU          1.8910     0.8860    -0.5080 hc         1 S22       0.060950
     42 HAUA         1.8910    -0.8860    -0.5080 hc         1 S22       0.060950
     43 HAV          1.7020    -0.9020     1.9440 h1         1 S22       0.026700
     44 HOAY         3.8060    -0.7050     1.8910 ho         1 S22       0.400000
     45 HAW          1.8310     2.1250     1.6970 hc         1 S22       0.060950
     46 HAWA         1.7900     1.2030     3.2100 hc         1 S22       0.060950
     47 HAX         -0.4570     2.0600     2.6130 h1         1 S22       0.042950
     48 HAXA        -0.4160     0.2890     2.5980 h1         1 S22       0.042950
     49 HAO         -1.9780     3.1270     1.7200 ha         1 S22       0.144000
     50 HAR         -3.2470     3.9440     3.2280 h1         1 S22       0.041700
     51 HARA        -4.4040     5.2190     2.8240 h1         1 S22       0.041700
     52 HARB        -3.0490     4.8780     1.7390 h1         1 S22       0.041700
     53 HAM         -2.0840    -0.4890    -0.5690 ha         1 S22       0.137000
     54 HAL         -4.5370    -0.3140    -0.7360 ha         1 S22       0.162000
     55 HNAJ        -6.5800     1.8180     1.1330 hn         1 S22       0.461800
     56 HAB         -8.5670     2.0810    -0.2170 ha         1 S22       0.142000
     57 HNAI        -5.0540    -0.1370    -4.4200 hn         1 S22       0.303700
     58 HAH         -6.8900    -0.3550    -6.2040 h4         1 S22       0.171000
     59 HAG         -9.1420     0.4270    -5.1400 ha         1 S22       0.167000
     60 HNAZ       -10.3840     2.4410    -2.4500 hn         1 S22       0.455800
     61 HBF         -9.3940    -1.0400    -2.0530 ha         1 S22       0.150000
     62 HBE        -10.9440    -2.9480    -2.2160 ha         1 S22       0.132000
     63 HBD        -13.3280    -2.5640    -2.7120 ha         1 S22       0.135000
     64 HBC        -14.1690    -0.2710    -3.0390 ha         1 S22       0.157000
     65 HBJ        -11.5730     3.1430    -1.1250 h1         1 S22       0.094700
     66 HBL        -13.0170     4.9910    -0.4520 hc         1 S22       0.051200
     67 HBLA       -12.8110     5.0350    -2.2090 hc         1 S22       0.051200
     68 HBLB       -14.3100     4.4070    -1.5090 hc         1 S22       0.051200
     69 HBK        -13.4320     2.8440     0.6340 hc         1 S22       0.051200
     70 HBKA       -14.3040     1.9420    -0.6140 hc         1 S22       0.051200
     71 HBKB       -12.7310     1.3680    -0.0440 hc         1 S22       0.051200
@<TRIPOS>BOND
     1     1     2 1
     2     1     7 1
     3     2     3 1
     4     3     4 1
     5     3     5 1
     6     5     6 1
     7     6     7 1
     8     7     8 1
     9     8     9 ar
    10     8    13 ar
    11     9    10 ar
    12    10    11 1
    13    10    15 ar
    14    11    12 1
    15    13    14 ar
    16    14    15 ar
    17    15    16 1
    18    16    17 1
    19    17    18 ar
    20    17    19 ar
    21    18    25 ar
    22    19    20 ar
    23    20    21 1
    24    20    24 ar
    25    21    22 1
    26    22    23 2
    27    23    24 1
    28    24    25 ar
    29    25    26 1
    30    26    27 1
    31    27    28 ar
    32    27    32 ar
    33    28    29 ar
    34    29    30 ar
    35    30    31 ar
    36    31    32 ar
    37    32    33 1
    38    33    34 2
    39    33    35 2
    40    33    36 1
    41    36    37 1
    42    36    38 1
    43     1    39 1
    44     1    40 1
    45     2    41 1
    46     2    42 1
    47     3    43 1
    48     4    44 1
    49     5    45 1
    50     5    46 1
    51     6    47 1
    52     6    48 1
    53     9    49 1
    54    12    50 1
    55    12    51 1
    56    12    52 1
    57    13    53 1
    58    14    54 1
    59    16    55 1
    60    18    56 1
    61    21    57 1
    62    22    58 1
    63    23    59 1
    64    26    60 1
    65    28    61 1
    66    29    62 1
    67    30    63 1
    68    31    64 1
    69    36    65 1
    70    37    66 1
    71    37    67 1
    72    37    68 1
    73    38    69 1
    74    38    70 1
    75    38    71 1
@<TRIPOS>SUBSTRUCTURE
     1 S22         1 TEMP              0 ****  ****    0 ROOT
