@<TRIPOS>MOLECULE
molecule
   55    56     1     0     0
SMALL
bcc


@<TRIPOS>ATOM
      1 O2           0.0000     0.0000     0.0000 o          1 S23      -0.725000
      2 P            1.4790     0.0000     0.0000 p5         1 S23       0.863400
      3 O1           2.0160    -1.3150    -0.7580 o          1 S23      -0.725000
      4 C1           2.0870     0.0000     1.7190 c3         1 S23      -0.051700
      5 N1           1.5980     1.2000     2.4110 nz         1 S23      -0.781600
      6 C2           1.5760    -1.2490     2.4410 c3         1 S23      -0.086100
      7 C3           2.0890     1.4870    -0.8600 c3         1 S23      -0.263600
      8 C4           1.4880     1.5450    -2.2660 c3         1 S23      -0.096700
      9 C6           0.6570     2.8210    -2.4140 c3         1 S23      -0.021100
     10 C7          -0.5080     2.7750    -1.4590 ca         1 S23      -0.045300
     11 C8          -0.4160     3.3900    -0.2250 ca         1 S23      -0.119500
     12 C10         -1.4850     3.3470     0.6510 ca         1 S23      -0.131500
     13 C12         -2.6470     2.6890     0.2910 ca         1 S23      -0.137000
     14 C11         -2.7390     2.0750    -0.9440 ca         1 S23      -0.131500
     15 C9          -1.6720     2.1230    -1.8210 ca         1 S23      -0.119500
     16 C5           2.5970     1.5470    -3.2860 c          1 S23       0.670100
     17 O3           2.7120     2.4770    -4.0550 o          1 S23      -0.639100
     18 N2           3.4620     0.5140    -3.3430 ns         1 S23      -0.544900
     19 C13          4.5400     0.5170    -4.3340 c3         1 S23       0.012700
     20 C14          4.0240    -0.0320    -5.6400 c          1 S23       0.885600
     21 O4           4.8420    -0.1250    -6.7000 o          1 S23      -0.837800
     22 O5           2.8720    -0.3870    -5.7320 o          1 S23      -0.837800
     23 C15          5.6940    -0.3560    -3.8360 c3         1 S23      -0.041100
     24 C16          6.2900     0.2600    -2.5970 ca         1 S23      -0.048300
     25 C17          7.3250     1.1690    -2.7070 ca         1 S23      -0.126000
     26 C19          7.8730     1.7340    -1.5700 ca         1 S23      -0.144500
     27 C21          7.3850     1.3900    -0.3240 ca         1 S23      -0.161000
     28 C20          6.3490     0.4810    -0.2140 ca         1 S23      -0.144500
     29 C18          5.7980    -0.0810    -1.3500 ca         1 S23      -0.126000
     30 H1           3.1700    -0.0010     1.7200 hx         1 S23       0.104700
     31 HN1          2.0160     2.0130     2.0040 hn         1 S23       0.437800
     32 HN1A         0.6030     1.2550     2.3200 hn         1 S23       0.437800
     33 H2           1.9680    -1.2690     3.4500 hc         1 S23       0.065033
     34 H2A          1.9040    -2.1330     1.9080 hc         1 S23       0.065033
     35 H2B          0.4930    -1.2280     2.4750 hc         1 S23       0.065033
     36 H3           3.1690     1.4460    -0.9300 hc         1 S23       0.046700
     37 H3A          1.7960     2.3710    -0.3050 hc         1 S23       0.046700
     38 H4           0.8530     0.6810    -2.4230 hc         1 S23       0.099700
     39 H6           1.2750     3.6820    -2.1890 hc         1 S23       0.062700
     40 H6A          0.2890     2.8960    -3.4300 hc         1 S23       0.062700
     41 H8           0.4950     3.9050     0.0570 ha         1 S23       0.125000
     42 H10         -1.4120     3.8280     1.6180 ha         1 S23       0.108500
     43 H12         -3.4840     2.6540     0.9780 ha         1 S23       0.110000
     44 H11         -3.6510     1.5620    -1.2260 ha         1 S23       0.108500
     45 H9          -1.7450     1.6420    -2.7890 ha         1 S23       0.125000
     46 HN2          3.3280    -0.2830    -2.7530 hn         1 S23       0.328500
     47 H13          4.8930     1.5300    -4.4830 h1         1 S23       0.070700
     48 H15          6.4530    -0.4260    -4.6060 hc         1 S23       0.068700
     49 H15A         5.3230    -1.3470    -3.6040 hc         1 S23       0.068700
     50 H17          7.7080     1.4390    -3.6840 ha         1 S23       0.146000
     51 H19          8.6840     2.4470    -1.6570 ha         1 S23       0.105500
     52 H21          7.8150     1.8320     0.5660 ha         1 S23       0.104000
     53 H20          5.9650     0.2130     0.7630 ha         1 S23       0.105500
     54 H18          4.9870    -0.7930    -1.2640 ha         1 S23       0.146000
     55 H131         1.8570     1.1570     3.3770 hn         1 S23       0.437800
@<TRIPOS>BOND
     1     1     2 1
     2     7     2 1
     3     2     3 1
     4     2     4 1
     5     4     5 1
     6     4     6 1
     7     4    30 1
     8     5    31 1
     9     5    32 1
    10     6    33 1
    11     6    34 1
    12     6    35 1
    13     8     7 1
    14     7    36 1
    15     7    37 1
    16     9     8 1
    17     8    16 1
    18     8    38 1
    19    10     9 1
    20     9    39 1
    21     9    40 1
    22    15    10 ar
    23    11    10 ar
    24    12    11 ar
    25    11    41 1
    26    13    12 ar
    27    12    42 1
    28    13    14 ar
    29    13    43 1
    30    14    15 ar
    31    14    44 1
    32    15    45 1
    33    17    16 2
    34    16    18 1
    35    19    18 1
    36    18    46 1
    37    20    19 1
    38    19    23 1
    39    19    47 1
    40    21    20 1
    41    20    22 1
    42    23    24 1
    43    23    48 1
    44    23    49 1
    45    25    24 ar
    46    24    29 ar
    47    25    26 ar
    48    25    50 1
    49    26    27 ar
    50    26    51 1
    51    27    28 ar
    52    27    52 1
    53    29    28 ar
    54    28    53 1
    55    29    54 1
    56    55     5 1
@<TRIPOS>SUBSTRUCTURE
     1 S23         1 TEMP              0 ****  ****    0 ROOT
