@<TRIPOS>MOLECULE
S24
   17    16     1     0     0
SMALL
bcc


@<TRIPOS>ATOM
      1 C2         -0.0570    0.1330   -0.0810 ca        1 S24     -0.082000
      2 C4         -0.2010   -0.1990    2.2960 ca        1 S24      0.104100
      3 C5          1.1940   -0.1650    2.4020 ca        1 S24     -0.255000
      4 C6          1.9540    0.0160    1.2380 ca        1 S24      0.164100
      5 C7          3.5790    1.9950   -1.4700 c1        1 S24      0.909000
      6 O2          3.6520    2.3850   -2.6210 o         1 S24     -0.625500
      7 O4          3.3130    0.0200    1.4110 oh        1 S24     -0.520100
      8 O1          4.0210    2.1930   -0.3470 o         1 S24     -0.625500
      9 C1          1.3400    0.1630   -0.0300 ca        1 S24      0.088100
     10 O3         -1.0120   -0.3790    3.4030 oh        1 S24     -0.522100
     11 C3         -0.8380   -0.0500    1.0590 ca        1 S24     -0.203000
     12 H2         -0.5480    0.2530   -1.0600 ha        1 S24      0.139000
     13 H5          1.6970   -0.2760    3.3700 ha        1 S24      0.128000
     14 HO4         3.7160    0.2850    0.5600 ho        1 S24      0.464000
     15 HO3        -0.4330   -0.4420    4.1740 ho        1 S24      0.403000
     16 H3         -1.9320   -0.0770    1.0000 ha        1 S24      0.125000
     17 S1          2.2060    0.2850   -1.4770 s         1 S24     -0.690100
@<TRIPOS>BOND
     1    1    9 ar  
     2    1   11 ar  
     3    1   12 1   
     4    2    3 ar  
     5    2   10 1   
     6    2   11 ar  
     7    3    4 ar  
     8    3   13 1   
     9    4    7 1   
    10    4    9 ar  
    11    5    6 2   
    12    5    8 2   
    13    7   14 1   
    14    9   17 1   
    15   10   15 1   
    16   11   16 1   
@<TRIPOS>SUBSTRUCTURE
     1 S24         1 TEMP              0 ****  ****    0 ROOT
