@<TRIPOS>MOLECULE
molecule
   17    17     1     0     0
SMALL
bcc


@<TRIPOS>ATOM
      1 C2           0.0000     0.0000     0.0000 ca         1 S24      -0.075000
      2 C4          -0.0020    -0.0060     2.4000 ca         1 S24       0.096100
      3 C5           1.3850    -0.0110     2.4050 ca         1 S24      -0.210000
      4 C6           2.0810     0.0000     1.2080 ca         1 S24       0.157100
      5 C7           2.7860     1.6850    -1.5770 c          1 S24       0.978200
      6 O2           3.6030     2.1070    -2.5620 o          1 S24      -0.780800
      7 O4           3.4410    -0.0060     1.2120 oh         1 S24      -0.486100
      8 O1           2.4060     2.4640    -0.7260 o          1 S24      -0.780800
      9 C1           1.3860     0.0000     0.0000 ca         1 S24       0.076900
     10 O3          -0.6870    -0.0070     3.5750 oh         1 S24      -0.530100
     11 C3          -0.6930    -0.0000     1.1960 ca         1 S24      -0.179000
     12 H2          -0.5410     0.0020    -0.9390 ha         1 S24       0.142000
     13 H5           1.9230     0.0160     3.3450 ha         1 S24       0.131000
     14 HO4          3.7510    -0.8420     1.5160 ho         1 S24       0.401000
     15 HO3         -0.8060    -0.8950     3.8680 ho         1 S24       0.401000
     16 H3          -1.7760     0.0020     1.1940 ha         1 S24       0.122000
     17 S1           2.2690     0.0010    -1.5240 ss         1 S24      -0.462500
@<TRIPOS>BOND
     1     9     1 ar
     2     1    11 ar
     3     1    12 1
     4     3     2 ar
     5    11     2 ar
     6     2    10 1
     7     4     3 ar
     8     3    13 1
     9     7     4 1
    10     9     4 ar
    11    17     5 1
    12     5     8 1
    13     5     6 1
    14     7    14 1
    15    17     9 1
    16    10    15 1
    17    11    16 1
@<TRIPOS>SUBSTRUCTURE
     1 S24         1 TEMP              0 ****  ****    0 ROOT
