@<TRIPOS>MOLECULE
S25
   54    57     1     0     0
SMALL
bcc


@<TRIPOS>ATOM
      1 C            0.0000     0.0000     0.0000 c3         1 S25       0.095300
      2 N            1.4700     0.0000     0.0000 nh         1 S25      -0.354000
      3 O            0.0360     1.2320     2.0770 os         1 S25      -0.405600
      4 S            7.2710    -3.8810    -2.9160 ss         1 S25      -0.321300
      5 C1          -0.5060     1.2340     0.7550 c3         1 S25       0.213400
      6 C2           1.4670     1.2330     2.1130 c3         1 S25       0.213400
      7 C3           1.9920     0.0000     1.3740 c3         1 S25       0.095300
      8 C4           7.7490    -6.1310    -4.6630 ca         1 S25      -0.069300
      9 C5           9.1290    -5.9070    -4.6140 ca         1 S25      -0.006000
     10 C6           9.9620    -6.7660    -5.3330 ca         1 S25      -0.287900
     11 C7           9.3910    -7.8070    -6.0690 ca         1 S25       0.402200
     12 N8           8.0850    -7.9830    -6.0910 nb         1 S25      -0.564000
     13 C9           7.2630    -7.1970    -5.4250 ca         1 S25       0.430200
     14 C10          5.6260    -3.5940    -2.5480 cc         1 S25       0.557300
     15 C11          6.8200    -5.2580    -3.9180 cc         1 S25      -0.138400
     16 C12          5.4760    -5.3740    -3.8830 cd         1 S25       0.436200
     17 N13          4.8730    -4.4690    -3.1410 nd         1 S25      -0.584000
     18 C14          1.1050    -1.9980    -1.3250 ca         1 S25      -0.316300
     19 C15          1.6340    -3.0550    -2.0330 ca         1 S25       0.464200
     20 N16          2.9400    -3.2100    -2.1460 nb         1 S25      -0.590000
     21 C17          3.7950    -2.3660    -1.5860 ca         1 S25       0.476200
     22 C18          3.3390    -1.2760    -0.8570 ca         1 S25      -0.301300
     23 C19          1.9690    -1.0790    -0.7240 ca         1 S25       0.089600
     24 C21         11.4280    -6.5770    -5.3170 c          1 S25       0.625700
     25 O22         11.9170    -5.6680    -4.6740 o          1 S25      -0.622100
     26 N23         12.2230    -7.4110    -6.0160 ns         1 S25      -0.226900
     27 C24         13.6770    -7.2230    -5.9990 c3         1 S25       0.059000
     28 C25         14.3390    -8.2970    -6.8650 c3         1 S25      -0.068200
     29 N26         15.7970    -8.1080    -6.8480 nz         1 S25       0.097400
     30 H1          -0.3610    -0.8960     0.4910 h1         1 S25       0.028450
     31 H2          -0.3600     0.0290    -1.0210 h1         1 S25       0.028450
     32 H3          -0.1880     2.1300     0.2360 h1         1 S25       0.016700
     33 H4          -1.5870     1.2050     0.8080 h1         1 S25       0.016700
     34 H5           1.8010     1.2060     3.1430 h1         1 S25       0.016700
     35 H6           1.8390     2.1290     1.6300 h1         1 S25       0.016700
     36 H7           3.0750     0.0290     1.3480 h1         1 S25       0.028450
     37 H8           1.6610    -0.8950     1.8860 h1         1 S25       0.028450
     38 H9           9.5390    -5.0900    -4.0330 ha         1 S25       0.144000
     39 H10         10.0300    -8.4770    -6.6310 h4         1 S25      -0.038900
     40 H11          6.1960    -7.3780    -5.4710 h4         1 S25      -0.002900
     41 H12          4.9400    -6.1470    -4.4190 h4         1 S25       0.002100
     42 H13          0.0430    -1.7910    -1.3760 ha         1 S25       0.136000
     43 H14          0.9690    -3.7680    -2.5040 h4         1 S25      -0.017900
     44 H15          4.0300    -0.4970    -0.5590 ha         1 S25       0.128000
     45 H16          5.8130    -1.9920    -1.2410 hn         1 S25       0.292800
     46 H17         11.8190    -8.1360    -6.5760 hn         1 S25       0.195500
     47 H18         13.9180    -6.2420    -6.3910 h1         1 S25       0.039700
     48 H19         14.0400    -7.3050    -4.9810 h1         1 S25       0.039700
     49 H20         14.0970    -9.2770    -6.4740 hx         1 S25       0.087200
     50 H21         13.9760    -8.2150    -7.8830 hx         1 S25       0.087200
     51 H22         16.1320    -8.1840    -5.9080 hn         1 S25       0.225800
     52 H23         16.0200    -7.2020    -7.2100 hn         1 S25       0.225800
     53 H263        16.2310    -8.8100    -7.4150 hn         1 S25       0.225800
     54 N20          5.1640    -2.5740    -1.7320 nu         1 S25      -0.350600
@<TRIPOS>BOND
     1     1     2 1   
     2     1     5 1   
     3     1    30 1   
     4     1    31 1   
     5     2     7 1   
     6     2    23 1   
     7     3     5 1   
     8     3     6 1   
     9     4    14 1   
    10     4    15 1   
    11     5    32 1   
    12     5    33 1   
    13     6     7 1   
    14     6    34 1   
    15     6    35 1   
    16     7    36 1   
    17     7    37 1   
    18     8     9 ar  
    19     8    13 ar  
    20     8    15 1   
    21     9    10 ar  
    22     9    38 1   
    23    10    11 ar  
    24    10    24 1   
    25    11    12 ar  
    26    11    39 1   
    27    12    13 ar  
    28    13    40 1   
    29    14    17 2   
    30    14    54 1   
    31    15    16 2   
    32    16    17 1   
    33    16    41 1   
    34    18    19 ar  
    35    18    23 ar  
    36    18    42 1   
    37    19    20 ar  
    38    19    43 1   
    39    20    21 ar  
    40    21    22 ar  
    41    21    54 1   
    42    22    23 ar  
    43    22    44 1   
    44    24    25 2   
    45    24    26 1   
    46    26    27 1   
    47    26    46 1   
    48    27    28 1   
    49    27    47 1   
    50    27    48 1   
    51    28    29 1   
    52    28    49 1   
    53    28    50 1   
    54    29    51 1   
    55    29    52 1   
    56    29    53 1   
    57    45    54 1   
@<TRIPOS>SUBSTRUCTURE
     1 S25         1 TEMP              0 ****  ****    0 ROOT
