@<TRIPOS>MOLECULE
S26
   40    43     1     0     0
SMALL
bcc


@<TRIPOS>ATOM
      1 C4           0.0000     0.0000     0.0000 ca         1 S26      -0.036600
      2 C14          2.7120    -0.0010     8.0100 ce         1 S26      -0.230400
      3 C5           1.3880     0.0000     0.0000 ca         1 S26      -0.094000
      4 C6           2.0860     0.0000     1.1810 ca         1 S26      -0.042000
      5 C8           1.0890     0.0010     4.6520 cc         1 S26       0.344800
      6 C13          1.3900    -0.0090     8.2990 cf         1 S26       0.118900
      7 C23          3.8160     0.0010     8.9740 c          1 S26       0.742300
      8 O22          0.8600    -0.0160     9.5430 oh         1 S26      -0.421100
      9 C12          0.6180    -0.0080     7.0390 c          1 S26       0.573700
     10 O21         -0.5950    -0.0140     6.9640 o          1 S26      -0.611500
     11 C15          2.8300    -0.0000     6.5040 c3         1 S26       0.170200
     12 C16          3.5610    -1.2300     6.0330 cc         1 S26      -0.020400
     13 C20          4.8340    -1.2650     5.6370 cd         1 S26      -0.080000
     14 C19          5.2920    -2.5130     5.2520 cd         1 S26      -0.132000
     15 C18          4.3910    -3.4930     5.3370 cc         1 S26       0.027900
     16 S17          2.8680    -2.8440     5.9290 ss         1 S26      -0.266800
     17 N11          1.4560    -0.0000     5.9870 n          1 S26       0.047700
     18 S9          -0.5690     0.0010     4.0680 ss         1 S26      -0.143100
     19 C2           0.0040     0.0010     2.4010 ca         1 S26      -0.027100
     20 N7           1.9130    -0.0000     3.6620 nd         1 S26      -0.496100
     21 C1           1.4020     0.0000     2.4160 ca         1 S26       0.093400
     22 Cl          -0.8680    -0.0070    -1.5030 cl         1 S26      -0.013400
     23 C3          -0.6890     0.0010     1.1940 ca         1 S26      -0.039000
     24 H1           1.9260     0.0010    -0.9410 ha         1 S26       0.118000
     25 H2           3.1690    -0.0000     1.1660 ha         1 S26       0.116000
     26 H6           0.2620     0.7070     9.6340 ho         1 S26       0.418000
     27 H7           3.3470     0.8930     6.1760 h1         1 S26       0.064700
     28 H8           5.4620    -0.3830     5.6170 ha         1 S26       0.126000
     29 H9           6.3060    -2.6820     4.9090 ha         1 S26       0.122000
     30 H10          4.5700    -4.5290     5.0790 h4         1 S26       0.149000
     31 H11         -1.7720     0.0010     1.1920 ha         1 S26       0.123000
     32 O1           5.0930     0.0080     8.5370 os         1 S26      -0.414900
     33 C9           6.1350     0.0100     9.5470 c3         1 S26       0.227400
     34 C10          7.5050     0.0190     8.8660 c3         1 S26      -0.004100
     35 O2           3.5820    -0.0050    10.1660 o          1 S26      -0.562000
     36 H3           6.0440    -0.8770    10.1620 h1         1 S26       0.010700
     37 H4           6.0350     0.8920    10.1680 h1         1 S26       0.010700
     38 H5           7.6450    -0.9080     8.3240 hc         1 S26       0.011033
     39 H12          7.5590     0.8530     8.1760 hc         1 S26       0.011033
     40 H13          8.2800     0.1200     9.6160 hc         1 S26       0.011033
@<TRIPOS>BOND
     1     1     3 ar  
     2     1    22 1   
     3     1    23 ar  
     4     2     6 2   
     5     2     7 1   
     6     2    11 1   
     7     3     4 ar  
     8     3    24 1   
     9     4    21 ar  
    10     4    25 1   
    11     5    17 1   
    12     5    18 1   
    13     5    20 2   
    14     6     8 1   
    15     6     9 1   
    16     7    32 1   
    17     7    35 2   
    18     8    26 1   
    19     9    10 2   
    20     9    17 1   
    21    11    12 1   
    22    11    17 1   
    23    11    27 1   
    24    12    13 2   
    25    12    16 1   
    26    13    14 1   
    27    13    28 1   
    28    14    15 2   
    29    14    29 1   
    30    15    16 1   
    31    15    30 1   
    32    18    19 1   
    33    19    21 ar  
    34    19    23 ar  
    35    20    21 1   
    36    23    31 1   
    37    32    33 1   
    38    33    34 1   
    39    33    36 1   
    40    33    37 1   
    41    34    38 1   
    42    34    39 1   
    43    34    40 1   
@<TRIPOS>SUBSTRUCTURE
     1 S26         1 TEMP              0 ****  ****    0 ROOT
