@<TRIPOS>MOLECULE
molecule
   40    43     1     0     0
SMALL
bcc


@<TRIPOS>ATOM
      1 C4           0.0000     0.0000     0.0000 ca         1 S26       0.028400
      2 C14          2.7120    -0.0010     8.0100 ce         1 S26      -0.178400
      3 C5           1.3880     0.0000     0.0000 ca         1 S26      -0.117000
      4 C6           2.0860     0.0000     1.1810 ca         1 S26      -0.073000
      5 C8           1.0890     0.0010     4.6520 cd         1 S26       0.496800
      6 C13          1.3900    -0.0090     8.2990 cf         1 S26       0.094900
      7 C23          3.8160     0.0010     8.9740 c          1 S26       0.667300
      8 O22          0.8600    -0.0160     9.5430 oh         1 S26      -0.442100
      9 C12          0.6180    -0.0080     7.0390 c          1 S26       0.667700
     10 O21         -0.5950    -0.0140     6.9640 o          1 S26      -0.580500
     11 C15          2.8300    -0.0000     6.5040 c3         1 S26       0.238200
     12 C16          3.5610    -1.2300     6.0330 cd         1 S26      -0.053400
     13 C20          4.8340    -1.2650     5.6370 cc         1 S26      -0.111000
     14 C19          5.2920    -2.5130     5.2520 cc         1 S26      -0.162000
     15 C18          4.3910    -3.4930     5.3370 cd         1 S26      -0.059100
     16 S17          2.8680    -2.8440     5.9290 ss         1 S26      -0.136800
     17 N11          1.4560    -0.0000     5.9870 n          1 S26      -0.356300
     18 S9          -0.5690     0.0010     4.0680 ss         1 S26      -0.032100
     19 C2           0.0040     0.0010     2.4010 ca         1 S26      -0.077100
     20 N7           1.9130    -0.0000     3.6620 nc         1 S26      -0.622100
     21 C1           1.4020     0.0000     2.4160 ca         1 S26       0.147400
     22 Cl          -0.8680    -0.0070    -1.5030 cl         1 S26      -0.099400
     23 C3          -0.6890     0.0010     1.1940 ca         1 S26      -0.074000
     24 H1           1.9260     0.0010    -0.9410 ha         1 S26       0.150000
     25 H2           3.1690    -0.0000     1.1660 ha         1 S26       0.152000
     26 H6           0.2620     0.7070     9.6340 ho         1 S26       0.441000
     27 H7           3.3470     0.8930     6.1760 h1         1 S26       0.106700
     28 H8           5.4620    -0.3830     5.6170 ha         1 S26       0.152000
     29 H9           6.3060    -2.6820     4.9090 ha         1 S26       0.149000
     30 H10          4.5700    -4.5290     5.0790 h4         1 S26       0.172000
     31 H11         -1.7720     0.0010     1.1920 ha         1 S26       0.151000
     32 O1           5.0930     0.0080     8.5370 os         1 S26      -0.425900
     33 C9           6.1350     0.0100     9.5470 c3         1 S26       0.148400
     34 C10          7.5050     0.0190     8.8660 c3         1 S26      -0.096100
     35 O2           3.5820    -0.0050    10.1660 o          1 S26      -0.516000
     36 H3           6.0440    -0.8770    10.1620 h1         1 S26       0.051700
     37 H4           6.0350     0.8920    10.1680 h1         1 S26       0.051700
     38 H5           7.6450    -0.9080     8.3240 hc         1 S26       0.048700
     39 H12          7.5590     0.8530     8.1760 hc         1 S26       0.048700
     40 H13          8.2800     0.1200     9.6160 hc         1 S26       0.048700
@<TRIPOS>BOND
     1    22     1 1
     2     3     1 ar
     3     3     4 ar
     4     1    23 ar
     5     4    21 ar
     6    23    19 ar
     7    21    19 ar
     8    21    20 1
     9    19    18 1
    10    14    15 2
    11    14    13 1
    12    20     5 2
    13    15    16 1
    14    13    12 2
    15     5    18 1
    16     5    17 1
    17    12    16 1
    18    12    11 1
    19    11    17 1
    20    11     2 1
    21    17     9 1
    22     9    10 2
    23     9     6 1
    24     2     7 1
    25     2     6 2
    26     6     8 1
    27     3    24 1
    28     4    25 1
    29     8    26 1
    30    11    27 1
    31    13    28 1
    32    14    29 1
    33    15    30 1
    34    23    31 1
    35     7    32 1
    36    32    33 1
    37    33    34 1
    38     7    35 2
    39    33    36 1
    40    33    37 1
    41    34    38 1
    42    34    39 1
    43    34    40 1
@<TRIPOS>SUBSTRUCTURE
     1 S26         1 TEMP              0 ****  ****    0 ROOT
