@<TRIPOS>MOLECULE
molecule
   53    54     1     0     0
SMALL
bcc


@<TRIPOS>ATOM
      1 C1           0.0000     0.0000     0.0000 ca         1 S27      -0.295500
      2 C2           1.3820     0.0000     0.0000 ca         1 S27      -0.065500
      3 C3           2.0740     0.0000     1.1960 ca         1 S27      -0.138500
      4 C4           1.3850     0.0020     2.3930 ca         1 S27      -0.094000
      5 C5           0.0020     0.0030     2.3950 ca         1 S27      -0.138500
      6 C6          -0.6900     0.0070     1.1980 ca         1 S27      -0.065500
      7 P7          -0.9080    -0.0010    -1.5690 py         1 S27       1.171300
      8 O8          -1.2690    -1.3900    -1.9290 o          1 S27      -0.776300
      9 C9           0.1410     0.7130    -2.8780 c3         1 S27      -0.329300
     10 N10         -2.3080     0.9190    -1.4070 n3         1 S27      -0.666700
     11 C11         -3.1480     0.6170    -2.5730 c3         1 S27       0.173100
     12 C12         -4.5940     0.5710    -2.1530 ca         1 S27      -0.077300
     13 C13         -5.3990     1.6820    -2.3210 ca         1 S27      -0.098500
     14 C14         -6.7260     1.6390    -1.9350 ca         1 S27      -0.128000
     15 C15         -7.2470     0.4850    -1.3810 ca         1 S27      -0.123000
     16 C16         -6.4420    -0.6270    -1.2140 ca         1 S27      -0.128000
     17 C17         -5.1170    -0.5850    -1.6050 ca         1 S27      -0.098500
     18 C18         -1.9050     2.3250    -1.5310 c3         1 S27       0.072500
     19 C           -3.0990     3.2120    -1.2950 c          1 S27       0.670100
     20 NA          -3.2300     4.3650    -1.9810 ns         1 S27      -0.484400
     21 OA          -4.3520     5.1990    -1.7590 oh         1 S27      -0.360100
     22 OB          -3.9440     2.8900    -0.4860 o          1 S27      -0.520100
     23 C7          -0.8240     2.6390    -0.4950 c3         1 S27      -0.105400
     24 C8          -0.4030     4.1040    -0.6250 c3         1 S27      -0.082700
     25 C10          0.5680     4.4580     0.5040 c3         1 S27      -0.090100
     26 C23          0.2830     4.3200    -1.9740 c3         1 S27      -0.090100
     27 H2           1.9240    -0.0040    -0.9380 ha         1 S27       0.139000
     28 H3           3.1580    -0.0000     1.1950 ha         1 S27       0.134500
     29 H4           1.9270     0.0000     3.3310 ha         1 S27       0.132000
     30 H5          -0.5390     0.0070     3.3340 ha         1 S27       0.134500
     31 H6          -1.7730     0.0080     1.2000 ha         1 S27       0.139000
     32 H91         -0.4860     1.1760    -3.6300 hc         1 S27       0.078367
     33 H92          0.7330    -0.0710    -3.3340 hc         1 S27       0.078367
     34 H93          0.7990     1.4580    -2.4470 hc         1 S27       0.078367
     35 H111        -2.8610    -0.3420    -2.9870 h1         1 S27       0.063200
     36 H112        -3.0150     1.3880    -3.3230 h1         1 S27       0.063200
     37 H13         -4.9900     2.5860    -2.7560 ha         1 S27       0.133500
     38 H14         -7.3560     2.5100    -2.0660 ha         1 S27       0.127000
     39 H15         -8.2860     0.4510    -1.0760 ha         1 S27       0.124000
     40 H16         -6.8520    -1.5320    -0.7820 ha         1 S27       0.127000
     41 H17         -4.4870    -1.4560    -1.4750 ha         1 S27       0.133500
     42 H18         -1.5140     2.5030    -2.5250 h1         1 S27       0.040700
     43 HNA         -2.5490     4.6170    -2.6680 hn         1 S27       0.316500
     44 HOA         -4.2240     6.0220    -2.2000 ho         1 S27       0.399000
     45 H71          0.0340     2.0010    -0.6650 hc         1 S27       0.070700
     46 H72         -1.2150     2.4630     0.4990 hc         1 S27       0.070700
     47 H8          -1.2790     4.7380    -0.5600 hc         1 S27       0.064700
     48 H101         0.1140     4.2210     1.4580 hc         1 S27       0.037033
     49 H102         1.4810     3.8870     0.3870 hc         1 S27       0.037033
     50 H103         0.7960     5.5160     0.4650 hc         1 S27       0.037033
     51 H231        -0.4080     4.0790    -2.7730 hc         1 S27       0.037033
     52 H232         1.1530     3.6790    -2.0440 hc         1 S27       0.037033
     53 H233         0.5890     5.3550    -2.0610 hc         1 S27       0.037033
@<TRIPOS>BOND
     1     1     2 ar
     2     1     6 ar
     3     1     7 1
     4     2     3 ar
     5     2    27 1
     6     3     4 ar
     7     3    28 1
     8     4     5 ar
     9     4    29 1
    10     5     6 ar
    11     5    30 1
    12     6    31 1
    13     7     8 2
    14     7     9 1
    15     7    10 1
    16     9    32 1
    17     9    33 1
    18     9    34 1
    19    10    11 1
    20    10    18 1
    21    11    12 1
    22    11    35 1
    23    11    36 1
    24    12    13 ar
    25    12    17 ar
    26    13    14 ar
    27    13    37 1
    28    14    15 ar
    29    14    38 1
    30    15    16 ar
    31    15    39 1
    32    16    17 ar
    33    16    40 1
    34    17    41 1
    35    18    19 1
    36    18    23 1
    37    18    42 1
    38    19    20 1
    39    19    22 2
    40    20    21 1
    41    20    43 1
    42    21    44 1
    43    23    24 1
    44    23    45 1
    45    23    46 1
    46    24    25 1
    47    24    26 1
    48    24    47 1
    49    25    48 1
    50    25    49 1
    51    25    50 1
    52    26    51 1
    53    26    52 1
    54    26    53 1
@<TRIPOS>SUBSTRUCTURE
     1 S27         1 TEMP              0 ****  ****    0 ROOT
