@<TRIPOS>MOLECULE
molecule
   16    15     1     0     0
SMALL
bcc


@<TRIPOS>ATOM
      1 C1           0.0000     0.0000     0.0000 c          1 S2G       0.875600
      2 C3           2.0180    -1.2500    -0.7200 c3         1 S2G      -0.040400
      3 C4           3.5420    -1.1890    -0.8300 c3         1 S2G      -0.182400
      4 C5           4.0450    -2.4180    -1.5400 c          1 S2G       0.892600
      5 O2          -0.6710     0.1010    -1.1580 o          1 S2G      -0.867300
      6 O1          -0.6040    -0.0960     1.0420 o          1 S2G      -0.867300
      7 O3           1.9830     0.0000     1.3480 oh         1 S2G      -0.609800
      8 O5           5.3600    -2.5810    -1.7510 o          1 S2G      -0.879800
      9 C2           1.5070     0.0000     0.0000 c3         1 S2G       0.034100
     10 O4           3.2630    -3.2590    -1.9200 o          1 S2G      -0.879800
     11 H2           1.8680     0.8840    -0.5110 h1         1 S2G       0.002700
     12 H3           1.7310    -2.1320    -0.1600 hc         1 S2G       0.059200
     13 H3A          1.5860    -1.2970    -1.7120 hc         1 S2G       0.059200
     14 H4           3.9740    -1.1430     0.1620 hc         1 S2G       0.021700
     15 H4A          3.8290    -0.3060    -1.3900 hc         1 S2G       0.021700
     16 HO3          2.0210     0.8860     1.6680 ho         1 S2G       0.361000
@<TRIPOS>BOND
     1     1     5 1
     2     1     6 1
     3     1     9 1
     4     2     3 1
     5     2     9 1
     6     3     4 1
     7     4     8 1
     8     4    10 1
     9     7     9 1
    10     9    11 1
    11     2    12 1
    12     2    13 1
    13     3    14 1
    14     3    15 1
    15     7    16 1
@<TRIPOS>SUBSTRUCTURE
     1 S2G         1 TEMP              0 ****  ****    0 ROOT
