@<TRIPOS>MOLECULE
S2G
   16    15     1     0     0
SMALL
bcc


@<TRIPOS>ATOM
      1 C1          0.0440    0.2870   -0.2200 c         1 S2G      0.889600
      2 C3          2.0670   -1.1780   -0.7220 c3        1 S2G     -0.069400
      3 C4          3.5750   -1.2200   -0.8200 c3        1 S2G     -0.174400
      4 C5          4.1250   -2.5300   -1.3900 c         1 S2G      0.902600
      5 O2         -0.4210    0.7380   -1.3050 o         1 S2G     -0.864800
      6 O1         -0.6810    0.0070    0.7850 o         1 S2G     -0.864800
      7 O3          1.9240    0.1300    1.3180 oh        1 S2G     -0.647800
      8 O5          4.9470   -2.4640   -2.3590 o         1 S2G     -0.879300
      9 C2          1.5710    0.1060   -0.0620 c3        1 S2G      0.025100
     10 O4          3.7990   -3.6380   -0.8660 o         1 S2G     -0.879300
     11 H2          2.0980    0.9930   -0.5090 h1        1 S2G      0.034700
     12 H3          1.6140   -1.2400   -1.7450 hc        1 S2G      0.042700
     13 H3A         1.7120   -2.0640   -0.1350 hc        1 S2G      0.042700
     14 H4          4.0070   -1.0840    0.2060 hc        1 S2G      0.016700
     15 H4A         3.9350   -0.3710   -1.4560 hc        1 S2G      0.016700
     16 HO3         1.1800   -0.2690    1.7920 ho        1 S2G      0.408000
@<TRIPOS>BOND
     1    1    5 1   
     2    1    6 1   
     3    1    9 1   
     4    2    3 1   
     5    2    9 1   
     6    2   12 1   
     7    2   13 1   
     8    3    4 1   
     9    3   14 1   
    10    3   15 1   
    11    4    8 1   
    12    4   10 1   
    13    7    9 1   
    14    7   16 1   
    15    9   11 1   
@<TRIPOS>SUBSTRUCTURE
     1 S2G         1 TEMP              0 ****  ****    0 ROOT
