@<TRIPOS>MOLECULE
S2H
    4     3     1     0     0
SMALL
bcc


@<TRIPOS>ATOM
      1 S1         -0.0250   -0.4270   -0.0610 sh        1 S2H     -0.210800
      2 S2          2.0790   -0.4190    0.0450 sh        1 S2H     -0.210800
      3 HS1        -0.2820    0.3990    0.9420 hs        1 S2H      0.210800
      4 HS2         2.3290    0.4470   -0.9260 hs        1 S2H      0.210800
@<TRIPOS>BOND
     1    1    2 1   
     2    1    3 1   
     3    2    4 1   
@<TRIPOS>SUBSTRUCTURE
     1 S2H         1 TEMP              0 ****  ****    0 ROOT
