@<TRIPOS>MOLECULE
molecule
    4     3     1     0     0
SMALL
bcc


@<TRIPOS>ATOM
      1 S1           0.0000     0.0000     0.0000 sh         1 S2H      -0.268300
      2 S2           2.0510     0.0000     0.0000 sh         1 S2H      -0.268300
      3 HS1         -0.4430     0.0000     1.2520 hs         1 S2H       0.268800
      4 HS2          2.4930     0.0000    -1.2520 hs         1 S2H       0.268800
@<TRIPOS>BOND
     1     2     1 1
     2     1     3 1
     3     2     4 1
@<TRIPOS>SUBSTRUCTURE
     1 S2H         1 TEMP              0 ****  ****    0 ROOT
