@<TRIPOS>MOLECULE
S2I
   53    56     1     0     0
SMALL
bcc


@<TRIPOS>ATOM
      1 C01          0.0000     0.0000     0.0000 c3         1 S2I      -0.049400
      2 C02          1.5300     0.0000     0.0000 c3         1 S2I       0.163800
      3 N03          2.0190     0.0000     1.3810 nu         1 S2I      -0.502900
      4 C04          3.3820     0.0000     1.6340 ca         1 S2I       0.567200
      5 C05          4.2950    -0.0010     0.5830 ca         1 S2I      -0.480600
      6 C06          5.6540     0.0010     0.8850 ca         1 S2I       0.560200
      7 N07          6.0330     0.0010     2.1600 nb         1 S2I      -0.681000
      8 C08          5.1360     0.0010     3.1340 cp         1 S2I       0.617000
      9 C09          5.6010     0.0020     4.5440 cp         1 S2I       0.309300
     10 C10          4.6690     0.0030     5.5790 ca         1 S2I      -0.176300
     11 C11          5.1180     0.0020     6.8900 ca         1 S2I      -0.086000
     12 C12          6.4850     0.0030     7.1210 ca         1 S2I      -0.211300
     13 C13          7.3550     0.0030     6.0440 ca         1 S2I       0.386200
     14 N14          6.9010    -0.0040     4.8080 nb         1 S2I      -0.530000
     15 N15          3.8350     0.0060     2.8850 nb         1 S2I      -0.718000
     16 N16          6.6000    -0.0010    -0.1290 nh         1 S2I      -0.453300
     17 C17          7.9470     0.0000     0.4150 c3         1 S2I       0.136300
     18 C18          8.9620     0.4480    -0.6420 c3         1 S2I       0.023900
     19 C19          9.3490    -0.7600    -1.4710 ca         1 S2I      -0.089800
     20 C20         10.6220    -1.2870    -1.3660 ca         1 S2I      -0.094500
     21 C21         10.9700    -2.3910    -2.1250 ca         1 S2I      -0.103500
     22 C22         10.0480    -2.9590    -2.9830 ca         1 S2I      -0.103500
     23 C23          8.7740    -2.4280    -3.0850 ca         1 S2I      -0.094500
     24 C24          8.4320    -1.3260    -2.3240 ca         1 S2I      -0.089800
     25 C25          7.0400    -0.7380    -2.4330 c3         1 S2I       0.023900
     26 C26          6.2970    -1.0170    -1.1230 c3         1 S2I       0.136300
     27 C27         -0.5100    -0.0000    -1.4420 c3         1 S2I       0.232400
     28 O28         -1.9390    -0.0000    -1.4420 oh         1 S2I      -0.591800
     29 H01         -0.3610     0.8850     0.5110 hc         1 S2I       0.030700
     30 H01A        -0.3610    -0.8840     0.5110 hc         1 S2I       0.030700
     31 H02          1.8910    -0.8840    -0.5110 h1         1 S2I       0.016700
     32 H02A         1.8910     0.8840    -0.5110 h1         1 S2I       0.016700
     33 HN03         1.3690     0.0220     2.1420 hn         1 S2I       0.302800
     34 H05          3.9560    -0.0010    -0.4460 ha         1 S2I       0.142000
     35 H10          3.6080     0.0020     5.3620 ha         1 S2I       0.132000
     36 H11          4.4160     0.0030     7.7150 ha         1 S2I       0.108000
     37 H12          6.8680     0.0060     8.1340 ha         1 S2I       0.110000
     38 H13          8.4240     0.0010     6.2210 h4         1 S2I      -0.020900
     39 H17          7.9840     0.6980     1.2430 h1         1 S2I       0.032950
     40 H17A         8.1950    -1.0080     0.7240 h1         1 S2I       0.032950
     41 H18          9.8450     0.8310    -0.1440 hc         1 S2I       0.029450
     42 H18A         8.4990     1.1850    -1.2870 hc         1 S2I       0.029450
     43 H20         11.3430    -0.8390    -0.6930 ha         1 S2I       0.106500
     44 H21         11.9660    -2.8090    -2.0470 ha         1 S2I       0.101500
     45 H22         10.3220    -3.8240    -3.5750 ha         1 S2I       0.101500
     46 H23          8.0510    -2.8730    -3.7570 ha         1 S2I       0.106500
     47 H25          7.1070     0.3310    -2.5920 hc         1 S2I       0.029450
     48 H25A         6.5120    -1.2030    -3.2570 hc         1 S2I       0.029450
     49 H26          6.5990    -1.9860    -0.7430 h1         1 S2I       0.032950
     50 H26A         5.2300    -1.0210    -1.3130 h1         1 S2I       0.032950
     51 H27         -0.1490    -0.8850    -1.9530 h1         1 S2I      -0.014800
     52 H27A        -0.1490     0.8840    -1.9530 h1         1 S2I      -0.014800
     53 HO28        -2.2530     0.0000    -2.3310 ho         1 S2I       0.393000
@<TRIPOS>BOND
     1     1     2 1   
     2     1    27 1   
     3     1    29 1   
     4     1    30 1   
     5     2     3 1   
     6     2    31 1   
     7     2    32 1   
     8     3     4 1   
     9     3    33 1   
    10     4     5 ar  
    11     4    15 ar  
    12     5     6 ar  
    13     5    34 1   
    14     6     7 ar  
    15     6    16 1   
    16     7     8 ar  
    17     8     9 1   
    18     8    15 ar  
    19     9    10 ar  
    20     9    14 ar  
    21    10    11 ar  
    22    10    35 1   
    23    11    12 ar  
    24    11    36 1   
    25    12    13 ar  
    26    12    37 1   
    27    13    14 ar  
    28    13    38 1   
    29    16    17 1   
    30    16    26 1   
    31    17    18 1   
    32    17    39 1   
    33    17    40 1   
    34    18    19 1   
    35    18    41 1   
    36    18    42 1   
    37    19    20 ar  
    38    19    24 ar  
    39    20    21 ar  
    40    20    43 1   
    41    21    22 ar  
    42    21    44 1   
    43    22    23 ar  
    44    22    45 1   
    45    23    24 ar  
    46    23    46 1   
    47    24    25 1   
    48    25    26 1   
    49    25    47 1   
    50    25    48 1   
    51    26    49 1   
    52    26    50 1   
    53    27    28 1   
    54    27    51 1   
    55    27    52 1   
    56    28    53 1   
@<TRIPOS>SUBSTRUCTURE
     1 S2I         1 TEMP              0 ****  ****    0 ROOT
