@<TRIPOS>MOLECULE
molecule
   53    56     1     0     0
SMALL
bcc


@<TRIPOS>ATOM
      1 C01          0.0000     0.0000     0.0000 c3         1 S2I      -0.099400
      2 C02          1.5300     0.0000     0.0000 c3         1 S2I       0.238800
      3 N03          2.0190     0.0000     1.3810 nu         1 S2I      -0.911900
      4 C04          3.3820     0.0000     1.6340 ca         1 S2I       0.747200
      5 C05          4.2950    -0.0010     0.5830 ca         1 S2I      -0.480600
      6 C06          5.6540     0.0010     0.8850 ca         1 S2I       0.688200
      7 N07          6.0330     0.0010     2.1600 nb         1 S2I      -0.787000
      8 C08          5.1360     0.0010     3.1340 cp         1 S2I       0.701000
      9 C09          5.6010     0.0020     4.5440 cp         1 S2I       0.378300
     10 C10          4.6690     0.0030     5.5790 ca         1 S2I      -0.205300
     11 C11          5.1180     0.0020     6.8900 ca         1 S2I      -0.108000
     12 C12          6.4850     0.0030     7.1210 ca         1 S2I      -0.244300
     13 C13          7.3550     0.0030     6.0440 ca         1 S2I       0.410200
     14 N14          6.9010    -0.0040     4.8080 nb         1 S2I      -0.649000
     15 N15          3.8350     0.0060     2.8850 nb         1 S2I      -0.830000
     16 N16          6.6000    -0.0010    -0.1290 nh         1 S2I      -0.719300
     17 C17          7.9470     0.0000     0.4150 c3         1 S2I       0.184800
     18 C18          8.9620     0.4480    -0.6420 c3         1 S2I      -0.040600
     19 C19          9.3490    -0.7600    -1.4710 ca         1 S2I      -0.083800
     20 C20         10.6220    -1.2870    -1.3660 ca         1 S2I      -0.122500
     21 C21         10.9700    -2.3910    -2.1250 ca         1 S2I      -0.129500
     22 C22         10.0480    -2.9590    -2.9830 ca         1 S2I      -0.129500
     23 C23          8.7740    -2.4280    -3.0850 ca         1 S2I      -0.122500
     24 C24          8.4320    -1.3260    -2.3240 ca         1 S2I      -0.083800
     25 C25          7.0400    -0.7380    -2.4330 c3         1 S2I      -0.040600
     26 C26          6.2970    -1.0170    -1.1230 c3         1 S2I       0.184800
     27 C27         -0.5100    -0.0000    -1.4420 c3         1 S2I       0.145400
     28 O28         -1.9390    -0.0000    -1.4420 oh         1 S2I      -0.608800
     29 H01         -0.3610     0.8850     0.5110 hc         1 S2I       0.063700
     30 H01A        -0.3610    -0.8840     0.5110 hc         1 S2I       0.063700
     31 H02          1.8910    -0.8840    -0.5110 h1         1 S2I       0.042200
     32 H02A         1.8910     0.8840    -0.5110 h1         1 S2I       0.042200
     33 HN03         1.3690     0.0220     2.1420 hn         1 S2I       0.453800
     34 H05          3.9560    -0.0010    -0.4460 ha         1 S2I       0.146000
     35 H10          3.6080     0.0020     5.3620 ha         1 S2I       0.161000
     36 H11          4.4160     0.0030     7.7150 ha         1 S2I       0.139000
     37 H12          6.8680     0.0060     8.1340 ha         1 S2I       0.137000
     38 H13          8.4240     0.0010     6.2210 h4         1 S2I       0.025100
     39 H17          7.9840     0.6980     1.2430 h1         1 S2I       0.057950
     40 H17A         8.1950    -1.0080     0.7240 h1         1 S2I       0.057950
     41 H18          9.8450     0.8310    -0.1440 hc         1 S2I       0.060950
     42 H18A         8.4990     1.1850    -1.2870 hc         1 S2I       0.060950
     43 H20         11.3430    -0.8390    -0.6930 ha         1 S2I       0.130000
     44 H21         11.9660    -2.8090    -2.0470 ha         1 S2I       0.128500
     45 H22         10.3220    -3.8240    -3.5750 ha         1 S2I       0.128500
     46 H23          8.0510    -2.8730    -3.7570 ha         1 S2I       0.130000
     47 H25          7.1070     0.3310    -2.5920 hc         1 S2I       0.060950
     48 H25A         6.5120    -1.2030    -3.2570 hc         1 S2I       0.060950
     49 H26          6.5990    -1.9860    -0.7430 h1         1 S2I       0.057950
     50 H26A         5.2300    -1.0210    -1.3130 h1         1 S2I       0.057950
     51 H27         -0.1490    -0.8850    -1.9530 h1         1 S2I       0.022200
     52 H27A        -0.1490     0.8840    -1.9530 h1         1 S2I       0.022200
     53 HO28        -2.2530     0.0000    -2.3310 ho         1 S2I       0.406000
@<TRIPOS>BOND
     1     1     2 1
     2     1    27 1
     3     2     3 1
     4     3     4 1
     5     4     5 ar
     6     4    15 ar
     7     5     6 ar
     8     6     7 ar
     9     6    16 1
    10     7     8 ar
    11     8     9 1
    12     8    15 ar
    13     9    10 ar
    14     9    14 ar
    15    10    11 ar
    16    11    12 ar
    17    12    13 ar
    18    13    14 ar
    19    16    17 1
    20    16    26 1
    21    17    18 1
    22    18    19 1
    23    19    20 ar
    24    19    24 ar
    25    20    21 ar
    26    21    22 ar
    27    22    23 ar
    28    23    24 ar
    29    24    25 1
    30    25    26 1
    31    27    28 1
    32     1    29 1
    33     1    30 1
    34     2    31 1
    35     2    32 1
    36     3    33 1
    37     5    34 1
    38    10    35 1
    39    11    36 1
    40    12    37 1
    41    13    38 1
    42    17    39 1
    43    17    40 1
    44    18    41 1
    45    18    42 1
    46    20    43 1
    47    21    44 1
    48    22    45 1
    49    23    46 1
    50    25    47 1
    51    25    48 1
    52    26    49 1
    53    26    50 1
    54    27    51 1
    55    27    52 1
    56    28    53 1
@<TRIPOS>SUBSTRUCTURE
     1 S2I         1 TEMP              0 ****  ****    0 ROOT
