@<TRIPOS>MOLECULE
molecule
   29    30     1     0     0
SMALL
bcc


@<TRIPOS>ATOM
      1 C01          0.0000     0.0000     0.0000 ca         1 S2L      -0.181000
      2 C02          1.3870     0.0000     0.0000 ca         1 S2L       0.120600
      3 C03          2.0830     0.0000     1.1970 ca         1 S2L      -0.151500
      4 C04          1.3840    -0.0010     2.4070 ca         1 S2L      -0.032800
      5 C05         -0.0130    -0.0010     2.4030 ca         1 S2L      -0.151500
      6 C06         -0.6980    -0.0010     1.2000 ca         1 S2L       0.120600
      7 O01         -2.0570     0.0050     1.1940 oh         1 S2L      -0.520600
      8 C07          2.1190    -0.0020     3.6850 ce         1 S2L      -0.107200
      9 C08          1.4470    -0.0020     4.8460 cf         1 S2L      -0.106200
     10 C09          2.1820    -0.0020     6.1230 ca         1 S2L      -0.058800
     11 C10          3.5790     0.0030     6.1290 ca         1 S2L      -0.101000
     12 C11          4.2620     0.0020     7.3250 ca         1 S2L      -0.149000
     13 C12          3.5640    -0.0040     8.5260 ca         1 S2L       0.116100
     14 C13          2.1760    -0.0100     8.5270 ca         1 S2L      -0.149000
     15 C14          1.4820    -0.0030     7.3350 ca         1 S2L       0.050400
     16 Cl1         -0.2540    -0.0030     7.3380 cl         1 S2L      -0.099400
     17 O02          4.2420    -0.0050     9.7030 oh         1 S2L      -0.517100
     18 O03          2.0650     0.0000    -1.1780 oh         1 S2L      -0.520600
     19 H1          -0.5400     0.0000    -0.9390 ha         1 S2L       0.150000
     20 H2           3.1660     0.0000     1.1950 ha         1 S2L       0.146000
     21 H3          -0.5580    -0.0020     3.3390 ha         1 S2L       0.146000
     22 H4          -2.3750    -0.8790     1.1170 ho         1 S2L       0.422000
     23 H5           3.2030    -0.0020     3.6860 ha         1 S2L       0.134000
     24 H6           0.3630    -0.0010     4.8450 ha         1 S2L       0.150000
     25 H7           4.1250     0.0070     5.1930 ha         1 S2L       0.143000
     26 H8           5.3450     0.0060     7.3300 ha         1 S2L       0.146000
     27 H9           1.6360    -0.0130     9.4670 ha         1 S2L       0.155000
     28 H10          4.3650    -0.8940     9.9950 ho         1 S2L       0.423000
     29 H11          2.2240     0.8890    -1.4500 ho         1 S2L       0.422000
@<TRIPOS>BOND
     1    12    11 ar
     2    12    13 ar
     3    18     2 1
     4    11    10 ar
     5     2     3 ar
     6     2     1 ar
     7     3     4 ar
     8    17    13 1
     9    13    14 ar
    10     9    10 1
    11     9     8 2
    12    10    15 ar
    13     1     6 ar
    14     4     8 1
    15     4     5 ar
    16    14    15 ar
    17     5     6 ar
    18     6     7 1
    19    15    16 1
    20     1    19 1
    21     3    20 1
    22     5    21 1
    23     7    22 1
    24     8    23 1
    25     9    24 1
    26    11    25 1
    27    12    26 1
    28    14    27 1
    29    17    28 1
    30    18    29 1
@<TRIPOS>SUBSTRUCTURE
     1 S2L         1 TEMP              0 ****  ****    0 ROOT
