@<TRIPOS>MOLECULE
S2N
   85    83     1     0     0
SMALL
bcc


@<TRIPOS>ATOM
      1 CAA        -2.0240   -0.0340   -0.6120 c2        1 S2N      0.109000
      2 CAB        -0.5840    0.2420   -0.3310 c3        1 S2N     -0.245000
      3 CAC        -0.2090   -0.0770    1.1210 c3        1 S2N      0.048000
      4 CAD         1.3060   -0.0170    1.2980 c3        1 S2N     -0.154000
      5 CAE         1.7170   -0.5620    2.6480 c3        1 S2N     -0.157000
      6 CAF         3.2150   -0.4580    2.8440 c3        1 S2N     -0.157000
      7 CAG         3.6300   -1.0160    4.1880 c3        1 S2N     -0.157000
      8 CAH         5.1270   -0.9100    4.3870 c3        1 S2N     -0.158000
      9 CAI         5.5440   -1.4690    5.7310 c3        1 S2N     -0.158000
     10 CAJ         7.0400   -1.3640    5.9290 c3        1 S2N     -0.158000
     11 CAK         7.4580   -1.9220    7.2730 c3        1 S2N     -0.158000
     12 CAL         8.9480   -1.8200    7.4740 c3        1 S2N     -0.211000
     13 CAP        -3.9540   -0.8660   -2.3880 c3        1 S2N     -0.339000
     14 CAQ        -4.5270    0.2040   -3.3000 c3        1 S2N     -0.112000
     15 CAS        -6.6570    1.1340   -4.2470 c2        1 S2N      0.281000
     16 CAT        -8.1300    1.3990   -4.0720 c3        1 S2N     -0.183000
     17 CAU        -8.8970    1.0820   -5.3560 c3        1 S2N     -0.142000
     18 NAR        -6.0070    0.3120   -3.1760 n4        1 S2N     -0.093000
     19 OAM        -2.9440    0.1460    0.1930 o         1 S2N     -0.309000
     20 OAN        -0.7700    0.8870    1.9960 oh        1 S2N     -0.318000
     21 OAY        -5.9540    1.5470   -5.1600 o         1 S2N     -0.198000
     22 SAO        -2.2170   -0.6390   -2.2240 ss        1 S2N      0.172000
     23 CAW        -8.4020   -1.5440   -5.4460 c1        1 S2N      0.096000
     24 CAX       -11.7070   -0.1970   -2.0290 c2        1 S2N      0.217000
     25 NAV        -9.3870   -0.3060   -5.4460 n4        1 S2N     -0.163000
     26 OAZ        -7.2790   -1.3260   -5.0250 o         1 S2N     -0.440000
     27 CBA       -11.8760   -1.6760   -1.7550 c3        1 S2N     -0.138000
     28 CBB       -10.9330   -2.0970   -0.6130 c3        1 S2N      0.050000
     29 CBF        -6.7590   -2.5760    0.9960 c3        1 S2N     -0.024000
     30 CBG       -11.5770   -2.4920   -3.0010 c3        1 S2N     -0.208000
     31 CBH       -13.3060   -1.9290   -1.2970 c3        1 S2N     -0.208000
     32 OBC        -9.5860   -1.9740   -1.0150 os        1 S2N     -0.748000
     33 OBE        -8.0390   -1.9810    1.0070 os        1 S2N     -0.776000
     34 OBI       -10.9520    0.2540   -2.8960 o         1 S2N     -0.348000
     35 OBJ        -7.4990   -0.5600   -1.1050 o         1 S2N     -1.148000
     36 OBK        -9.3900   -0.0460    0.5940 oh        1 S2N     -0.815000
     37 PBD        -8.5300   -1.1000   -0.2180 p5        1 S2N      2.681000
     38 HAB         0.0680   -0.3500   -1.0290 hc        1 S2N      0.138000
     39 HABA       -0.3940    1.3350   -0.5180 hc        1 S2N      0.138000
     40 HAC        -0.5920   -1.1030    1.3870 h1        1 S2N      0.080000
     41 HAD         1.6420    1.0490    1.2020 hc        1 S2N      0.094000
     42 HADA        1.7900   -0.6110    0.4810 hc        1 S2N      0.094000
     43 HAE         1.3990   -1.6340    2.7370 hc        1 S2N      0.088000
     44 HAEA        1.1860    0.0120    3.4540 hc        1 S2N      0.088000
     45 HAF         3.5300    0.6160    2.7690 hc        1 S2N      0.080500
     46 HAFA        3.7420   -1.0170    2.0260 hc        1 S2N      0.080500
     47 HAG         3.1020   -0.4580    5.0060 hc        1 S2N      0.080000
     48 HAGA        3.3160   -2.0900    4.2640 hc        1 S2N      0.080000
     49 HAH         5.4420    0.1640    4.3120 hc        1 S2N      0.080000
     50 HAHA        5.6550   -1.4670    3.5680 hc        1 S2N      0.080000
     51 HAI         5.0160   -0.9120    6.5490 hc        1 S2N      0.079000
     52 HAIA        5.2290   -2.5430    5.8060 hc        1 S2N      0.079000
     53 HAJ         7.3560   -0.2900    5.8540 hc        1 S2N      0.079500
     54 HAJA        7.5690   -1.9210    5.1110 hc        1 S2N      0.079500
     55 HAK         6.9290   -1.3640    8.0900 hc        1 S2N      0.078000
     56 HAKA        7.1410   -2.9960    7.3470 hc        1 S2N      0.078000
     57 HAL         9.4930   -2.3910    6.6840 hc        1 S2N      0.073333
     58 HALA        9.2810   -0.7550    7.4280 hc        1 S2N      0.073333
     59 HALB        9.2350   -2.2360    8.4700 hc        1 S2N      0.073333
     60 HAP        -4.4390   -0.8470   -1.3750 h1        1 S2N      0.149000
     61 HAPA       -4.1220   -1.8810   -2.8320 h1        1 S2N      0.149000
     62 HAQ        -4.2850   -0.0350   -4.3780 hx        1 S2N      0.152000
     63 HAQA       -4.0870    1.2140   -3.0590 hx        1 S2N      0.152000
     64 HAT        -8.5640    0.8440   -3.1960 hc        1 S2N      0.151500
     65 HATA       -8.2320    2.5020   -3.8610 hc        1 S2N      0.151500
     66 HAU        -9.7700    1.7960   -5.4070 hx        1 S2N      0.128500
     67 HAUA       -8.2330    1.2750   -6.2470 hx        1 S2N      0.128500
     68 HNAR       -6.2600    0.6900   -2.2480 hn        1 S2N      0.290000
     69 HOAN       -1.7290    0.7700    1.9700 ho        1 S2N      0.212000
     70 HAX       -12.3110    0.4810   -1.3830 h4        1 S2N      0.116000
     71 HNAV       -9.8950   -0.4050   -6.3250 hn        1 S2N      0.222000
     72 HBB       -11.1160   -1.4740    0.3030 h1        1 S2N      0.104000
     73 HBBA      -11.1140   -3.1870   -0.3890 h1        1 S2N      0.104000
     74 HBF        -6.2560   -2.3100    1.9630 h1        1 S2N      0.095333
     75 HBFA       -6.1710   -2.1900    0.1240 h1        1 S2N      0.095333
     76 HBFB       -6.8840   -3.6890    0.9400 h1        1 S2N      0.095333
     77 HBG       -11.7230   -3.5790   -2.7920 hc        1 S2N      0.094000
     78 HBGA      -10.5190   -2.3280   -3.3210 hc        1 S2N      0.094000
     79 HBGB      -12.2590   -2.1900   -3.8310 hc        1 S2N      0.094000
     80 HBH       -14.0240   -1.6170   -2.0940 hc        1 S2N      0.094000
     81 HBHA      -13.5320   -1.3560   -0.3650 hc        1 S2N      0.094000
     82 HBHB      -13.4560   -3.0170   -1.0950 hc        1 S2N      0.094000
     83 HOBI       -9.3410   -0.0510    1.5510 ho        1 S2N      0.309000
     84 HAR2       -6.4300   -0.6380   -3.2160 hn        1 S2N      0.290000
     85 HAV2      -10.0480   -0.4850   -4.6850 hn        1 S2N      0.222000
@<TRIPOS>BOND
     1    1    2 1   
     2    1   19 1   
     3    1   22 1   
     4    2    3 1   
     5    2   38 1   
     6    2   39 1   
     7    3    4 1   
     8    3   20 1   
     9    3   40 1   
    10    4    5 1   
    11    4   41 1   
    12    4   42 1   
    13    5    6 1   
    14    5   43 1   
    15    5   44 1   
    16    6    7 1   
    17    6   45 1   
    18    6   46 1   
    19    7    8 1   
    20    7   47 1   
    21    7   48 1   
    22    8    9 1   
    23    8   49 1   
    24    8   50 1   
    25    9   10 1   
    26    9   51 1   
    27    9   52 1   
    28   10   11 1   
    29   10   53 1   
    30   10   54 1   
    31   11   12 1   
    32   11   55 1   
    33   11   56 1   
    34   12   57 1   
    35   12   58 1   
    36   12   59 1   
    37   13   14 1   
    38   13   22 1   
    39   13   60 1   
    40   13   61 1   
    41   14   18 1   
    42   14   62 1   
    43   14   63 1   
    44   15   16 1   
    45   15   18 1   
    46   15   21 1   
    47   16   17 1   
    48   16   64 1   
    49   16   65 1   
    50   17   25 1   
    51   17   66 1   
    52   17   67 1   
    53   18   68 1   
    54   18   84 1   
    55   20   69 1   
    56   23   25 1   
    57   23   26 1   
    58   24   27 1   
    59   24   34 1   
    60   24   70 1   
    61   25   71 1   
    62   25   85 1   
    63   27   28 1   
    64   27   30 1   
    65   27   31 1   
    66   28   32 1   
    67   28   72 1   
    68   28   73 1   
    69   29   33 1   
    70   29   74 1   
    71   29   75 1   
    72   29   76 1   
    73   30   77 1   
    74   30   78 1   
    75   30   79 1   
    76   31   80 1   
    77   31   81 1   
    78   31   82 1   
    79   32   37 1   
    80   33   37 1   
    81   35   37 1   
    82   36   37 1   
    83   36   83 1   
@<TRIPOS>SUBSTRUCTURE
     1 S2N         1 TEMP              0 ****  ****    0 ROOT
