@<TRIPOS>MOLECULE
molecule
   25    25     1     0     0
SMALL
bcc


@<TRIPOS>ATOM
      1 O2           0.0000     0.0000     0.0000 o          1 S2O      -0.518800
      2 S            1.4210     0.0000     0.0000 sy         1 S2O       1.226200
      3 O1           2.1980     0.0000     1.1890 o          1 S2O      -0.518800
      4 N            1.8890    -1.3330    -0.8650 nz         1 S2O      -0.806500
      5 C2           1.9190     1.4190    -0.9200 ca         1 S2O      -0.346500
      6 C1           1.0610     1.9750    -1.8490 ca         1 S2O      -0.026500
      7 C3           3.1640     1.9790    -0.7060 ca         1 S2O      -0.026500
      8 C4           3.5540     3.0910    -1.4270 ca         1 S2O      -0.129000
      9 C5           2.6990     3.6460    -2.3610 ca         1 S2O       0.021700
     10 C            1.4510     3.0890    -2.5710 ca         1 S2O      -0.129000
     11 C6           3.1250     4.8580    -3.1470 c3         1 S2O      -0.058100
     12 C7           2.7150     6.1250    -2.3930 c3         1 S2O       0.151400
     13 O            3.1180     7.2750    -3.1380 oh         1 S2O      -0.601800
     14 H1           2.8820    -1.3200    -0.9860 hn         1 S2O       0.492133
     15 H2           1.4430    -1.3230    -1.7610 hn         1 S2O       0.492133
     16 H3           0.0770     1.5490    -2.0020 ha         1 S2O       0.157500
     17 H4           3.8230     1.5630     0.0470 ha         1 S2O       0.157500
     18 H5           4.5380     3.5180    -1.2740 ha         1 S2O       0.168000
     19 H6           0.7950     3.5000    -3.3280 ha         1 S2O       0.168000
     20 H7           2.6460     4.8450    -4.1190 hc         1 S2O       0.080700
     21 H8           4.2010     4.8460    -3.2740 hc         1 S2O       0.080700
     22 H9           1.6390     6.1360    -2.2660 h1         1 S2O       0.027700
     23 H10          3.1930     6.1380    -1.4220 h1         1 S2O       0.027700
     24 H11          2.8650     8.0550    -2.6730 ho         1 S2O       0.420000
     25 HN3          1.6240    -2.1610    -0.3700 hn         1 S2O       0.492133
@<TRIPOS>BOND
     1    13    12 1
     2    12    11 1
     3    11     9 1
     4     9    10 ar
     5     9     8 ar
     6    10     6 ar
     7     8     7 ar
     8     6     5 ar
     9     7     5 ar
    10     5     2 1
    11     4     2 1
    12     1     2 2
    13     2     3 2
    14     4    14 1
    15     4    15 1
    16     6    16 1
    17     7    17 1
    18     8    18 1
    19    10    19 1
    20    11    20 1
    21    11    21 1
    22    12    22 1
    23    12    23 1
    24    13    24 1
    25    25     4 1
@<TRIPOS>SUBSTRUCTURE
     1 S2O         1 TEMP              0 ****  ****    0 ROOT
