@<TRIPOS>MOLECULE
molecule
   23    23     1     0     0
SMALL
bcc


@<TRIPOS>ATOM
      1 C10          0.0000     0.0000     0.0000 c          1 S2T       0.640100
      2 C01          5.0490    -2.0640     2.2310 ca         1 S2T      -0.139000
      3 C02          5.7040    -2.1390     1.0180 ca         1 S2T      -0.148000
      4 C03          5.1660    -1.5260    -0.0980 ca         1 S2T      -0.141000
      5 C04          3.9700    -0.8380    -0.0010 ca         1 S2T      -0.116000
      6 C05          3.3260    -0.7110     1.1810 ca         1 S2T      -0.012300
      7 C06          3.8520    -1.3760     2.3310 ca         1 S2T       0.048400
      8 C07          2.0020    -0.0000     1.2930 c3         1 S2T       0.074400
      9 O08          1.3420     0.0000     0.0000 os         1 S2T      -0.415900
     10 C09          2.2300     1.4200     1.7410 c          1 S2T       0.890600
     11 O11         -0.6040     0.0000     1.0470 o          1 S2T      -0.561000
     12 C12         -0.7540     0.0070    -1.3050 c3         1 S2T      -0.141100
     13 Cl           3.0460    -1.2320     3.8620 cl         1 S2T      -0.084400
     14 O14          2.7380     1.6660     2.9600 o          1 S2T      -0.820800
     15 O15          1.9570     2.3370     1.0040 o          1 S2T      -0.820800
     16 H3           5.6800    -1.5850    -1.0500 ha         1 S2T       0.113000
     17 H4           3.5490    -0.3580    -0.8760 ha         1 S2T       0.147000
     18 H5           1.3780    -0.5110     2.0170 h1         1 S2T       0.085700
     19 H6          -1.8110     0.1470    -1.1100 hc         1 S2T       0.055033
     20 H7          -0.3910     0.8160    -1.9270 hc         1 S2T       0.055033
     21 H8          -0.6030    -0.9370    -1.8140 hc         1 S2T       0.055033
     22 H1           5.4720    -2.5450     3.1050 ha         1 S2T       0.125000
     23 H2           6.6410    -2.6780     0.9400 ha         1 S2T       0.112000
@<TRIPOS>BOND
     1     2     3 ar
     2     2     7 ar
     3     3     4 ar
     4    13     7 1
     5     7     6 ar
     6     4     5 ar
     7     6     5 ar
     8     6     8 1
     9     8    10 1
    10     8     9 1
    11    10    15 1
    12    10    14 1
    13     9     1 1
    14     1    11 2
    15     1    12 1
    16     2    22 1
    17     3    23 1
    18     4    16 1
    19     5    17 1
    20     8    18 1
    21    12    19 1
    22    12    20 1
    23    12    21 1
@<TRIPOS>SUBSTRUCTURE
     1 S2T         1 TEMP              0 ****  ****    0 ROOT
