@<TRIPOS>MOLECULE
S2T
   23    23     1     0     0
SMALL
bcc


@<TRIPOS>ATOM
      1 C10        -0.0980   -0.0970    0.1120 c         1 S2T      0.691100
      2 C01         5.0820   -2.1380    2.2720 ca        1 S2T     -0.141000
      3 C02         5.7650   -2.0860    1.0620 ca        1 S2T     -0.148000
      4 C03         5.1930   -1.4330   -0.0310 ca        1 S2T     -0.145000
      5 C04         3.9440   -0.8340    0.0920 ca        1 S2T     -0.097000
      6 C05         3.2350   -0.8750    1.3040 ca        1 S2T     -0.001300
      7 C06         3.8190   -1.5420    2.3910 ca        1 S2T      0.031400
      8 C07         1.9100   -0.1930    1.3910 c3        1 S2T      0.046400
      9 O08         1.1880   -0.5710    0.1940 os        1 S2T     -0.461900
     10 C09         2.0150    1.3710    1.3950 c         1 S2T      0.916600
     11 O11        -0.8200   -0.1530    1.1110 o         1 S2T     -0.573000
     12 C12        -0.4840    0.3220   -1.2650 c3        1 S2T     -0.154100
     13 CL          3.0310   -1.6660    3.9000 cl        1 S2T     -0.112400
     14 O14         2.8120    1.9250    2.1890 o         1 S2T     -0.813300
     15 O15         1.2400    1.9570    0.5870 o         1 S2T     -0.813300
     16 H3          5.7330   -1.3860   -0.9870 ha        1 S2T      0.116000
     17 H4          3.4850   -0.3050   -0.7590 ha        1 S2T      0.155000
     18 H5          1.3190   -0.5200    2.2870 h1        1 S2T      0.075700
     19 H6          0.0050   -0.3280   -2.0280 hc        1 S2T      0.062367
     20 H7         -0.1230    1.3750   -1.3920 hc        1 S2T      0.062367
     21 H8         -1.5920    0.2810   -1.3820 hc        1 S2T      0.062367
     22 H1          5.5320   -2.6460    3.1370 ha        1 S2T      0.125000
     23 H2          6.7550   -2.5530    0.9710 ha        1 S2T      0.113000
@<TRIPOS>BOND
     1    1    9 1   
     2    1   11 2   
     3    1   12 1   
     4    2    3 ar  
     5    2    7 ar  
     6    2   22 1   
     7    3    4 ar  
     8    3   23 1   
     9    4    5 ar  
    10    4   16 1   
    11    5    6 ar  
    12    5   17 1   
    13    6    7 ar  
    14    6    8 1   
    15    7   13 1   
    16    8    9 1   
    17    8   10 1   
    18    8   18 1   
    19   10   14 1   
    20   10   15 1   
    21   12   19 1   
    22   12   20 1   
    23   12   21 1   
@<TRIPOS>SUBSTRUCTURE
     1 S2T         1 TEMP              0 ****  ****    0 ROOT
