@<TRIPOS>MOLECULE
molecule
   31    32     1     0     0
SMALL
bcc


@<TRIPOS>ATOM
      1 O3           0.0000     0.0000     0.0000 o          1 S2X      -0.580100
      2 C1           1.2130     0.0000     0.0000 c          1 S2X       0.652100
      3 C            1.9660     0.0000     1.3050 c3         1 S2X      -0.172100
      4 N            1.8870    -0.0060    -1.1670 ns         1 S2X      -0.479100
      5 C2           1.1900    -0.1030    -2.3780 ca         1 S2X       0.018600
      6 C7          -0.0480     0.5050    -2.5150 ca         1 S2X      -0.089000
      7 C6          -0.7400     0.4080    -3.7200 cp         1 S2X      -0.108500
      8 C5          -0.1790    -0.3030    -4.7860 ca         1 S2X       0.128100
      9 O2          -0.8490    -0.4010    -5.9650 oh         1 S2X      -0.482100
     10 C4           1.0590    -0.9070    -4.6390 ca         1 S2X      -0.193000
     11 C3           1.7430    -0.8030    -3.4430 ca         1 S2X      -0.148000
     12 C8          -2.0650     1.0550    -3.8720 cp         1 S2X       0.427800
     13 N1          -3.0820     0.3610    -4.3640 nb         1 S2X      -0.691000
     14 C12         -4.2780     0.8920    -4.5180 ca         1 S2X       0.372200
     15 C11         -4.5250     2.2060    -4.1690 ca         1 S2X      -0.211300
     16 C10         -3.4830     2.9810    -3.6450 ca         1 S2X      -0.079600
     17 C9          -2.2290     2.3860    -3.4900 ca         1 S2X      -0.205300
     18 C13         -3.7070     4.3930    -3.2600 c          1 S2X       0.883200
     19 O1          -2.7920     5.0500    -2.8060 o          1 S2X      -0.831800
     20 O           -4.9240     4.9470    -3.4120 o          1 S2X      -0.831800
     21 HC1          1.2610    -0.0070     2.1280 hc         1 S2X       0.057700
     22 HC2          2.5830     0.8880     1.3660 hc         1 S2X       0.057700
     23 HC3          2.5940    -0.8810     1.3600 hc         1 S2X       0.057700
     24 H            2.8830     0.0920    -1.1700 hn         1 S2X       0.313500
     25 H7          -0.4780     1.0550    -1.6860 ha         1 S2X       0.182000
     26 H3           2.7110    -1.2770    -3.3330 ha         1 S2X       0.116000
     27 H4           1.4940    -1.4560    -5.4650 ha         1 S2X       0.124000
     28 H9          -1.3970     2.9510    -3.0890 ha         1 S2X       0.152000
     29 H12         -5.0800     0.2880    -4.9240 h4         1 S2X      -0.000900
     30 H11         -5.5120     2.6320    -4.3020 ha         1 S2X       0.157000
     31 H21         -0.2650    -0.1950    -6.6760 ho         1 S2X       0.403000
@<TRIPOS>BOND
     1     1     2 2
     2     2     3 1
     3     2     4 1
     4     4     5 1
     5     5     6 ar
     6     5    11 ar
     7     6     7 ar
     8     7     8 ar
     9     7    12 1
    10     8     9 1
    11     8    10 ar
    12    10    11 ar
    13    12    13 ar
    14    12    17 ar
    15    13    14 ar
    16    14    15 ar
    17    15    16 ar
    18    16    17 ar
    19    16    18 1
    20    18    19 1
    21    18    20 1
    22     9    31 1
    23     3    21 1
    24     3    22 1
    25     3    23 1
    26     4    24 1
    27     6    25 1
    28    11    26 1
    29    10    27 1
    30    17    28 1
    31    14    29 1
    32    15    30 1
@<TRIPOS>SUBSTRUCTURE
     1 S2X         1 TEMP              0 ****  ****    0 ROOT
