@<TRIPOS>MOLECULE
S2X
   31    32     1     0     0
SMALL
bcc


@<TRIPOS>ATOM
      1 O3           0.0000     0.0000     0.0000 o          1 S2X      -0.620100
      2 C1           1.2130     0.0000     0.0000 c          1 S2X       0.550100
      3 C            1.9660     0.0000     1.3050 c3         1 S2X      -0.070100
      4 N            1.8870    -0.0060    -1.1670 ns         1 S2X      -0.034100
      5 C2           1.1900    -0.1030    -2.3780 ca         1 S2X      -0.132400
      6 C7          -0.0480     0.5050    -2.5150 ca         1 S2X      -0.064000
      7 C6          -0.7400     0.4080    -3.7200 cp         1 S2X      -0.114500
      8 C5          -0.1790    -0.3030    -4.7860 ca         1 S2X       0.147100
      9 O2          -0.8490    -0.4010    -5.9650 oh         1 S2X      -0.461100
     10 C4           1.0590    -0.9070    -4.6390 ca         1 S2X      -0.180000
     11 C3           1.7430    -0.8030    -3.4430 ca         1 S2X      -0.117000
     12 C8          -2.0650     1.0550    -3.8720 cp         1 S2X       0.379800
     13 N1          -3.0820     0.3610    -4.3640 nb         1 S2X      -0.581000
     14 C12         -4.2780     0.8920    -4.5180 ca         1 S2X       0.347200
     15 C11         -4.5250     2.2060    -4.1690 ca         1 S2X      -0.177300
     16 C10         -3.4830     2.9810    -3.6450 ca         1 S2X      -0.082600
     17 C9          -2.2290     2.3860    -3.4900 ca         1 S2X      -0.176300
     18 C13         -3.7070     4.3930    -3.2600 c          1 S2X       0.975200
     19 O1          -2.7920     5.0500    -2.8060 o          1 S2X      -0.880800
     20 O           -4.9240     4.9470    -3.4120 o          1 S2X      -0.880800
     21 HC1          1.2610    -0.0070     2.1280 hc         1 S2X       0.019033
     22 HC2          2.5830     0.8880     1.3660 hc         1 S2X       0.019033
     23 HC3          2.5940    -0.8810     1.3600 hc         1 S2X       0.019033
     24 H            2.8830     0.0920    -1.1700 hn         1 S2X       0.156500
     25 H7          -0.4780     1.0550    -1.6860 ha         1 S2X       0.159000
     26 H3           2.7110    -1.2770    -3.3330 ha         1 S2X       0.092000
     27 H4           1.4940    -1.4560    -5.4650 ha         1 S2X       0.101000
     28 H9          -1.3970     2.9510    -3.0890 ha         1 S2X       0.129000
     29 H12         -5.0800     0.2880    -4.9240 h4         1 S2X      -0.039900
     30 H11         -5.5120     2.6320    -4.3020 ha         1 S2X       0.133000
     31 H21         -0.2650    -0.1950    -6.6760 ho         1 S2X       0.384000
@<TRIPOS>BOND
     1     1     2 2   
     2     2     3 1   
     3     2     4 1   
     4     3    21 1   
     5     3    22 1   
     6     3    23 1   
     7     4     5 1   
     8     4    24 1   
     9     5     6 ar  
    10     5    11 ar  
    11     6     7 ar  
    12     6    25 1   
    13     7     8 ar  
    14     7    12 1   
    15     8     9 1   
    16     8    10 ar  
    17     9    31 1   
    18    10    11 ar  
    19    10    27 1   
    20    11    26 1   
    21    12    13 ar  
    22    12    17 ar  
    23    13    14 ar  
    24    14    15 ar  
    25    14    29 1   
    26    15    16 ar  
    27    15    30 1   
    28    16    17 ar  
    29    16    18 1   
    30    17    28 1   
    31    18    19 1   
    32    18    20 1   
@<TRIPOS>SUBSTRUCTURE
     1 S2X         1 TEMP              0 ****  ****    0 ROOT
