@<TRIPOS>MOLECULE
molecule
   55    59     1     0     0
SMALL
bcc


@<TRIPOS>ATOM
      1 CAT          0.0000     0.0000     0.0000 c3         1 S30      -0.058800
      2 CAL          1.5070     0.0000     0.0000 ca         1 S30      -0.086300
      3 CAM          2.1990     0.0000     1.1960 ca         1 S30      -0.161000
      4 CAE          3.5820    -0.0000     1.1950 ca         1 S30      -0.112000
      5 CAD          4.2770    -0.0010    -0.0000 ca         1 S30      -0.109000
      6 CAC          3.5910    -0.0010    -1.1990 ca         1 S30      -0.093000
      7 CAK          2.2020    -0.0070    -1.2030 ca         1 S30       0.002600
      8 NAJ          1.5030    -0.0140    -2.4160 n          1 S30      -0.289500
      9 CAI          1.1700    -1.1920    -2.9910 c          1 S30       0.714100
     10 OAB          1.4640    -2.2550    -2.4740 o          1 S30      -0.611500
     11 CAH          0.4360    -1.1410    -4.2640 ca         1 S30      -0.205600
     12 CAG          0.0450    -2.2980    -4.9370 ca         1 S30       0.049700
     13 CAA          0.3690    -3.6540    -4.3660 c3         1 S30      -0.070800
     14 CAF         -0.6410    -2.1920    -6.1270 ca         1 S30      -0.156000
     15 CAN         -0.9430    -0.9450    -6.6590 ca         1 S30      -0.112000
     16 CAO         -0.5660     0.2090    -6.0110 ca         1 S30      -0.140000
     17 CAP          0.1300     0.1280    -4.8030 ca         1 S30       0.194400
     18 NAQ          0.5200     1.2410    -4.1300 nc         1 S30      -0.633100
     19 CAR          1.1620     1.1650    -3.0050 cd         1 S30       0.478900
     20 CAS          1.5540     2.4470    -2.3170 c3         1 S30      -0.011000
     21 NAV          1.0940     3.5870    -3.1130 na         1 S30      -0.012800
     22 NAU         -0.1500     4.2150    -2.9810 nc         1 S30      -0.480100
     23 C6           1.8130     4.2070    -4.0920 ca         1 S30       0.522800
     24 N1           3.0270     4.0280    -4.6130 nb         1 S30      -0.787000
     25 C2           3.4650     4.8050    -5.5780 ca         1 S30       0.735900
     26 N3           2.7430     5.7910    -6.0820 nb         1 S30      -0.789000
     27 C4           1.5200     6.0480    -5.6290 ca         1 S30       0.767200
     28 NBE          0.7710     7.0800    -6.1610 nv         1 S30      -1.077500
     29 C5           1.0090     5.2440    -4.5970 ca         1 S30      -0.479500
     30 CAZ         -0.2460     5.2010    -3.8430 cd         1 S30       0.461800
     31 CBD         -1.3670     6.0750    -4.0120 ch         1 S30      -0.097200
     32 CBF         -2.2760     6.8030    -4.1640 c1         1 S30      -0.121100
     33 CBG         -3.5550     7.4320    -3.7500 c3         1 S30       0.258500
     34 OBH         -4.4240     6.5910    -3.8430 oh         1 S30      -0.520800
     35 HAT1        -0.4090    -0.6670    -0.7500 hc         1 S30       0.052033
     36 HAT2        -0.4770    -0.0540     0.9710 hc         1 S30       0.052033
     37 HAT3        -0.2350     1.0290    -0.2430 hc         1 S30       0.052033
     38 HAM          1.3790     0.2600     1.8540 ha         1 S30       0.150000
     39 HAE          3.7570     0.1310     2.2560 ha         1 S30       0.149000
     40 HAD          5.3290     0.1250     0.2230 ha         1 S30       0.145000
     41 HAC          4.1420    -0.1300    -2.1230 ha         1 S30       0.150000
     42 HAA1         0.5250    -3.8310    -3.3090 hc         1 S30       0.052367
     43 HAA2        -0.3460    -4.4280    -4.6160 hc         1 S30       0.052367
     44 HAA3         1.2840    -4.0540    -4.7850 hc         1 S30       0.052367
     45 HAF         -1.2700    -2.7690    -6.7940 ha         1 S30       0.151000
     46 HAN         -1.5770    -0.6940    -7.5010 ha         1 S30       0.136000
     47 HAO         -0.7580     1.2150    -6.3660 ha         1 S30       0.151000
     48 HAS1         1.7660     2.2390    -1.2760 h1         1 S30       0.138700
     49 HAS2         2.2900     2.8310    -3.0140 h1         1 S30       0.138700
     50 H2           4.4700     4.6360    -5.9450 h5         1 S30       0.064100
     51 HBE1         0.9240     7.9000    -5.6090 hn         1 S30       0.461300
     52 HBE2         0.2140     6.9070    -6.9750 hn         1 S30       0.461300
     53 HBG1        -3.8430     7.9340    -4.6660 h1         1 S30       0.002700
     54 HBG2        -3.2790     8.1840    -3.0210 h1         1 S30       0.002700
     55 HBH         -5.1770     7.1400    -3.7010 ho         1 S30       0.417000
@<TRIPOS>BOND
     1     1     2 1
     2     2     3 ar
     3     2     7 ar
     4     3     4 ar
     5     4     5 ar
     6     5     6 ar
     7     6     7 ar
     8     7     8 1
     9     8     9 1
    10     8    19 1
    11     9    10 2
    12     9    11 1
    13    11    12 ar
    14    11    17 ar
    15    12    13 1
    16    12    14 ar
    17    14    15 ar
    18    15    16 ar
    19    16    17 ar
    20    17    18 1
    21    18    19 2
    22    19    20 1
    23    20    21 1
    24    21    22 1
    25    21    23 1
    26    22    30 2
    27    23    24 ar
    28    23    29 ar
    29    24    25 ar
    30    25    26 ar
    31    26    27 ar
    32    27    28 1
    33    27    29 ar
    34    29    30 1
    35    30    31 1
    36    31    32 3
    37    32    33 1
    38    33    34 1
    39     1    35 1
    40     1    36 1
    41     1    37 1
    42     3    38 1
    43     4    39 1
    44     5    40 1
    45     6    41 1
    46    13    42 1
    47    13    43 1
    48    13    44 1
    49    14    45 1
    50    15    46 1
    51    16    47 1
    52    20    48 1
    53    20    49 1
    54    25    50 1
    55    28    51 1
    56    28    52 1
    57    33    53 1
    58    33    54 1
    59    34    55 1
@<TRIPOS>SUBSTRUCTURE
     1 S30         1 TEMP              0 ****  ****    0 ROOT
