@<TRIPOS>MOLECULE
S30
   55    59     1     0     0
SMALL
bcc


@<TRIPOS>ATOM
      1 CAT          0.0000     0.0000     0.0000 c3         1 S30       0.044200
      2 CAL          1.5070     0.0000     0.0000 ca         1 S30      -0.083300
      3 CAM          2.1990     0.0000     1.1960 ca         1 S30      -0.145000
      4 CAE          3.5820    -0.0000     1.1950 ca         1 S30      -0.073000
      5 CAD          4.2770    -0.0010    -0.0000 ca         1 S30      -0.079000
      6 CAC          3.5910    -0.0010    -1.1990 ca         1 S30      -0.053000
      7 CAK          2.2020    -0.0070    -1.2030 ca         1 S30      -0.138400
      8 NAJ          1.5030    -0.0140    -2.4160 n          1 S30       0.165500
      9 CAI          1.1700    -1.1920    -2.9910 c          1 S30       0.625100
     10 OAB          1.4640    -2.2550    -2.4740 o          1 S30      -0.655500
     11 CAH          0.4360    -1.1410    -4.2640 ca         1 S30      -0.220600
     12 CAG          0.0450    -2.2980    -4.9370 ca         1 S30       0.069700
     13 CAA          0.3690    -3.6540    -4.3660 c3         1 S30       0.020200
     14 CAF         -0.6410    -2.1920    -6.1270 ca         1 S30      -0.136000
     15 CAN         -0.9430    -0.9450    -6.6590 ca         1 S30      -0.085000
     16 CAO         -0.5660     0.2090    -6.0110 ca         1 S30      -0.123000
     17 CAP          0.1300     0.1280    -4.8030 ca         1 S30       0.154400
     18 NAQ          0.5200     1.2410    -4.1300 nc         1 S30      -0.541100
     19 CAR          1.1620     1.1650    -3.0050 cd         1 S30       0.280900
     20 CAS          1.5540     2.4470    -2.3170 c3         1 S30      -0.131000
     21 NAV          1.0940     3.5870    -3.1130 na         1 S30       0.416200
     22 NAU         -0.1500     4.2150    -2.9810 nc         1 S30      -0.610100
     23 C6           1.8130     4.2070    -4.0920 ca         1 S30       0.318800
     24 N1           3.0270     4.0280    -4.6130 nb         1 S30      -0.657000
     25 C2           3.4650     4.8050    -5.5780 ca         1 S30       0.679900
     26 N3           2.7430     5.7910    -6.0820 nb         1 S30      -0.683000
     27 C4           1.5200     6.0480    -5.6290 ca         1 S30       0.609200
     28 NBE          0.7710     7.0800    -6.1610 nv         1 S30      -0.662500
     29 C5           1.0090     5.2440    -4.5970 ca         1 S30      -0.493500
     30 CAZ         -0.2460     5.2010    -3.8430 cd         1 S30       0.519800
     31 CBD         -1.3670     6.0750    -4.0120 ch         1 S30      -0.108200
     32 CBF         -2.2760     6.8030    -4.1640 c1         1 S30      -0.155100
     33 CBG         -3.5550     7.4320    -3.7500 c3         1 S30       0.384500
     34 OBH         -4.4240     6.5910    -3.8430 oh         1 S30      -0.516800
     35 HAT1        -0.4090    -0.6670    -0.7500 hc         1 S30       0.018367
     36 HAT2        -0.4770    -0.0540     0.9710 hc         1 S30       0.018367
     37 HAT3        -0.2350     1.0290    -0.2430 hc         1 S30       0.018367
     38 HAM          1.3790     0.2600     1.8540 ha         1 S30       0.129000
     39 HAE          3.7570     0.1310     2.2560 ha         1 S30       0.120000
     40 HAD          5.3290     0.1250     0.2230 ha         1 S30       0.114000
     41 HAC          4.1420    -0.1300    -2.1230 ha         1 S30       0.118000
     42 HAA1         0.5250    -3.8310    -3.3090 hc         1 S30       0.020033
     43 HAA2        -0.3460    -4.4280    -4.6160 hc         1 S30       0.020033
     44 HAA3         1.2840    -4.0540    -4.7850 hc         1 S30       0.020033
     45 HAF         -1.2700    -2.7690    -6.7940 ha         1 S30       0.126000
     46 HAN         -1.5770    -0.6940    -7.5010 ha         1 S30       0.106000
     47 HAO         -0.7580     1.2150    -6.3660 ha         1 S30       0.122000
     48 HAS1         1.7660     2.2390    -1.2760 h1         1 S30       0.097700
     49 HAS2         2.2900     2.8310    -3.0140 h1         1 S30       0.097700
     50 H2           4.4700     4.6360    -5.9450 h5         1 S30      -0.001900
     51 HBE1         0.9240     7.9000    -5.6090 hn         1 S30       0.301800
     52 HBE2         0.2140     6.9070    -6.9750 hn         1 S30       0.301800
     53 HBG1        -3.8430     7.9340    -4.6660 h1         1 S30      -0.038300
     54 HBG2        -3.2790     8.1840    -3.0210 h1         1 S30      -0.038300
     55 HBH         -5.1770     7.1400    -3.7010 ho         1 S30       0.391000
@<TRIPOS>BOND
     1     1     2 1   
     2     1    35 1   
     3     1    36 1   
     4     1    37 1   
     5     2     3 ar  
     6     2     7 ar  
     7     3     4 ar  
     8     3    38 1   
     9     4     5 ar  
    10     4    39 1   
    11     5     6 ar  
    12     5    40 1   
    13     6     7 ar  
    14     6    41 1   
    15     7     8 1   
    16     8     9 1   
    17     8    19 1   
    18     9    10 2   
    19     9    11 1   
    20    11    12 ar  
    21    11    17 ar  
    22    12    13 1   
    23    12    14 ar  
    24    13    42 1   
    25    13    43 1   
    26    13    44 1   
    27    14    15 ar  
    28    14    45 1   
    29    15    16 ar  
    30    15    46 1   
    31    16    17 ar  
    32    16    47 1   
    33    17    18 1   
    34    18    19 2   
    35    19    20 1   
    36    20    21 1   
    37    20    48 1   
    38    20    49 1   
    39    21    22 1   
    40    21    23 1   
    41    22    30 2   
    42    23    24 ar  
    43    23    29 ar  
    44    24    25 ar  
    45    25    26 ar  
    46    25    50 1   
    47    26    27 ar  
    48    27    28 1   
    49    27    29 ar  
    50    28    51 1   
    51    28    52 1   
    52    29    30 1   
    53    30    31 1   
    54    31    32 3   
    55    32    33 1   
    56    33    34 1   
    57    33    53 1   
    58    33    54 1   
    59    34    55 1   
@<TRIPOS>SUBSTRUCTURE
     1 S30         1 TEMP              0 ****  ****    0 ROOT
