@<TRIPOS>MOLECULE
S33
   82    85     1     0     0
SMALL
bcc


@<TRIPOS>ATOM
      1 S26          0.0000     0.0000     0.0000 sy         1 S33       1.039200
      2 Cl4          4.7000     0.0140    -2.7050 cl         1 S33       0.010600
      3 C1           1.7620     0.0000     0.0000 ca         1 S33      -0.195500
      4 C45          6.5360    -0.0050     1.2750 c3         1 S33       0.246700
      5 O44          5.8880     0.0010     0.0020 os         1 S33      -0.295900
      6 C43          4.5290     0.0010     0.0010 ca         1 S33       0.197100
      7 O5          -0.4010     0.5380     1.2520 o          1 S33      -0.569800
      8 O42         -0.4020     0.5510    -1.2470 o          1 S33      -0.569800
      9 C47          2.4520     0.0000     1.1990 ca         1 S33       0.029000
     10 C40          2.4510     0.0060    -1.1980 ca         1 S33       0.065000
     11 C46          3.8330    -0.0060     1.2020 ca         1 S33      -0.247000
     12 C41          3.8340     0.0060    -1.2010 ca         1 S33      -0.112600
     13 C8           1.1010    -3.2220     0.8090 c          1 S33       0.573100
     14 N3          -0.4900    -1.5820    -0.0080 n7         1 S33      -0.543100
     15 C31         -4.8960    -2.5970     2.3930 c3         1 S33       0.110300
     16 C32         -6.0630    -3.5460     2.4900 ca         1 S33      -0.112300
     17 C33         -6.3180    -4.2030     3.6800 ca         1 S33      -0.085000
     18 C34         -7.3850    -5.0720     3.7770 ca         1 S33      -0.073000
     19 C35         -8.2090    -5.2860     2.6700 ca         1 S33       0.041000
     20 C36         -7.9450    -4.6190     1.4720 ca         1 S33      -0.073000
     21 C37         -6.8780    -3.7500     1.3910 ca         1 S33      -0.085000
     22 C38         -9.3180    -6.1870     2.7620 cg         1 S33       0.218800
     23 N39        -10.2000    -6.8980     2.8550 n1         1 S33      -0.361800
     24 C6          -0.1600    -2.4560     1.1190 c3         1 S33       0.230500
     25 C7          -1.3080    -3.4400     1.3550 c3         1 S33      -0.284400
     26 C28         -2.5330    -2.6840     1.8010 c          1 S33       0.601100
     27 O29         -2.4650    -1.4930     2.0180 o          1 S33      -0.640100
     28 N30         -3.7040    -3.3320     1.9590 ns         1 S33      -0.194900
     29 N10          1.8200    -3.7700     1.8090 n          1 S33      -0.161800
     30 C11          3.0640    -4.5380     1.6480 c3         1 S33      -0.065300
     31 C15          2.8120    -5.7460     0.7840 c          1 S33       0.557100
     32 O16          1.7020    -5.9530     0.3400 o          1 S33      -0.603100
     33 C12          3.5110    -4.9840     3.0560 c3         1 S33      -0.087400
     34 C13          2.1940    -4.9250     3.8740 c3         1 S33       0.017600
     35 C14          1.4940    -3.6930     3.2440 c3         1 S33       0.040000
     36 N17          3.8190    -6.5970     0.5040 ns         1 S33      -0.230900
     37 C18          3.5740    -7.7710    -0.3370 c3         1 S33       0.119300
     38 C19          4.8530    -8.5510    -0.4950 ca         1 S33      -0.074300
     39 C20          5.2730    -9.4020     0.5110 ca         1 S33      -0.206300
     40 C25          4.4510    -9.5480     1.7650 c3         1 S33       0.030100
     41 N27          3.3290   -10.4610     1.5120 nz         1 S33       0.066400
     42 C21          6.4470   -10.1170     0.3670 ca         1 S33      -0.050000
     43 C22          7.2010    -9.9830    -0.7830 ca         1 S33      -0.075000
     44 C23          6.7820    -9.1330    -1.7910 ca         1 S33      -0.031600
     45 Cl2          7.7300    -8.9630    -3.2350 cl         1 S33       0.070600
     46 C24          5.6040    -8.4210    -1.6480 ca         1 S33      -0.067000
     47 H45          7.6090    -0.0500     1.1340 h1         1 S33      -0.000633
     48 H45A         6.2100    -0.8680     1.8430 h1         1 S33      -0.000633
     49 H45B         6.2810     0.8990     1.8150 h1         1 S33      -0.000633
     50 H47          1.9100     0.0550     2.1350 ha         1 S33       0.120000
     51 H40          1.9080     0.0280    -2.1350 ha         1 S33       0.139000
     52 H46          4.3730     0.0410     2.1400 ha         1 S33       0.126000
     53 HN3         -1.0040    -1.9430    -0.7870 hn         1 S33       0.367800
     54 H31         -5.1220    -1.8190     1.6740 h1         1 S33       0.036200
     55 H31A        -4.7110    -2.1510     3.3630 h1         1 S33       0.036200
     56 H33         -5.6780    -4.0360     4.5380 ha         1 S33       0.114500
     57 H34         -7.5840    -5.5860     4.7090 ha         1 S33       0.117500
     58 H36         -8.5820    -4.7800     0.6100 ha         1 S33       0.117500
     59 H37         -6.6730    -3.2310     0.4620 ha         1 S33       0.114500
     60 H6          -0.0090    -1.8570     2.0090 h1         1 S33       0.049700
     61 H7          -0.8980    -2.8680     2.1790 hc         1 S33       0.082700
     62 H7A         -1.1400    -4.4610     1.6750 hc         1 S33       0.082700
     63 HN30        -3.7630    -4.3130     1.7690 hn         1 S33       0.176500
     64 H11          3.8270    -3.9110     1.2020 h1         1 S33       0.055700
     65 H12          4.1950    -4.2240     2.6990 hc         1 S33       0.050700
     66 H12A         3.9300    -5.9820     3.0100 hc         1 S33       0.050700
     67 H13          1.6060    -5.8220     3.7250 hc         1 S33       0.028200
     68 H13A         2.4000    -4.7560     4.9250 hc         1 S33       0.028200
     69 H14          1.8880    -2.7780     3.6700 h1         1 S33       0.028200
     70 H14A         0.4220    -3.7540     3.3900 h1         1 S33       0.028200
     71 HN17         4.7460    -6.3970     0.8250 hn         1 S33       0.188500
     72 H18          2.8230    -8.3980     0.1290 h1         1 S33       0.017700
     73 H18A         3.2230    -7.4510    -1.3100 h1         1 S33       0.017700
     74 H25          5.0700    -9.9480     2.5580 hx         1 S33       0.084200
     75 H25A         4.0680    -8.5780     2.0600 hx         1 S33       0.084200
     76 HN27         3.2790   -10.6650     0.5330 hn         1 S33       0.227800
     77 HN2A         3.4680   -11.3100     2.0230 hn         1 S33       0.227800
     78 H21          6.7900   -10.7630     1.1660 ha         1 S33       0.116000
     79 H22          8.1220   -10.5420    -0.8960 ha         1 S33       0.137000
     80 H24          5.4360    -7.8850    -2.5740 ha         1 S33       0.148000
     81 H273         2.4760   -10.0350     1.8160 hn         1 S33       0.227800
     82 O9           1.4680    -3.3450    -0.3400 o          1 S33      -0.595100
@<TRIPOS>BOND
     1     1     3 1   
     2     1     7 2   
     3     1     8 2   
     4     1    14 1   
     5     2    12 1   
     6     3     9 ar  
     7     3    10 ar  
     8     4     5 1   
     9     4    47 1   
    10     4    48 1   
    11     4    49 1   
    12     5     6 1   
    13     6    11 ar  
    14     6    12 ar  
    15     9    11 ar  
    16     9    50 1   
    17    10    12 ar  
    18    10    51 1   
    19    11    52 1   
    20    13    24 1   
    21    13    29 1   
    22    13    82 2   
    23    14    24 1   
    24    14    53 1   
    25    15    16 1   
    26    15    28 1   
    27    15    54 1   
    28    15    55 1   
    29    16    17 ar  
    30    16    21 ar  
    31    17    18 ar  
    32    17    56 1   
    33    18    19 ar  
    34    18    57 1   
    35    19    20 ar  
    36    19    22 1   
    37    20    21 ar  
    38    20    58 1   
    39    21    59 1   
    40    22    23 3   
    41    24    25 1   
    42    24    60 1   
    43    25    26 1   
    44    25    61 1   
    45    25    62 1   
    46    26    27 2   
    47    26    28 1   
    48    28    63 1   
    49    29    30 1   
    50    29    35 1   
    51    30    31 1   
    52    30    33 1   
    53    30    64 1   
    54    31    32 2   
    55    31    36 1   
    56    33    34 1   
    57    33    65 1   
    58    33    66 1   
    59    34    35 1   
    60    34    67 1   
    61    34    68 1   
    62    35    69 1   
    63    35    70 1   
    64    36    37 1   
    65    36    71 1   
    66    37    38 1   
    67    37    72 1   
    68    37    73 1   
    69    38    39 ar  
    70    38    46 ar  
    71    39    40 1   
    72    39    42 ar  
    73    40    41 1   
    74    40    74 1   
    75    40    75 1   
    76    41    76 1   
    77    41    77 1   
    78    41    81 1   
    79    42    43 ar  
    80    42    78 1   
    81    43    44 ar  
    82    43    79 1   
    83    44    45 1   
    84    44    46 ar  
    85    46    80 1   
@<TRIPOS>SUBSTRUCTURE
     1 S33         1 TEMP              0 ****  ****    0 ROOT
