@<TRIPOS>MOLECULE
S35
   64    66     1     0     0
SMALL
bcc


@<TRIPOS>ATOM
      1 C35          0.0000     0.0000     0.0000 c3         1 S35       0.047200
      2 C30          1.5070     0.0000     0.0000 ca         1 S35      -0.068300
      3 C31          2.1990     0.0000     1.1980 ca         1 S35      -0.113000
      4 C32          3.5810    -0.0000     1.1980 ca         1 S35      -0.123000
      5 C33          4.2720    -0.0010     0.0010 ca         1 S35      -0.117000
      6 C34          3.5810    -0.0030    -1.1970 ca         1 S35      -0.098000
      7 C29          2.1990    -0.0060    -1.1970 ca         1 S35      -0.070300
      8 C24          1.4460    -0.0130    -2.5020 c3         1 S35       0.068000
      9 C25          1.1070    -1.4550    -2.8870 c3         1 S35      -0.148400
     10 C26          0.2410    -1.4540    -4.1200 c          1 S35       0.971600
     11 O28         -0.1560    -0.4090    -4.5800 o          1 S35      -0.894300
     12 O27         -0.0900    -2.6150    -4.7090 o          1 S35      -0.894300
     13 N23          2.2750     0.5890    -3.5480 ns         1 S35      -0.102900
     14 C21          2.3110     1.9290    -3.6920 c          1 S35       0.502600
     15 O22          1.7270     2.6410    -2.8970 o          1 S35      -0.676100
     16 C10          3.0580     2.5320    -4.8130 cc         1 S35       0.377800
     17 N9           3.7300     1.8740    -5.7390 nd         1 S35      -0.631800
     18 C11          3.1740     3.9110    -5.0850 cc         1 S35      -0.356300
     19 C12          3.9380     4.0530    -6.1960 cd         1 S35      -0.032200
     20 O13          4.2840     5.2250    -6.7850 os         1 S35      -0.300900
     21 C14          3.8950     6.4270    -6.1170 c3         1 S35       0.173400
     22 C15          4.2700     7.6340    -6.9780 c3         1 S35       0.193100
     23 C17          3.7500     8.9130    -6.3180 c3         1 S35      -0.078000
     24 C19          4.3970     9.0750    -4.9410 c3         1 S35       0.002567
     25 C20          4.1020    10.1180    -7.1920 c3         1 S35       0.002567
     26 C18          2.2310     8.8230    -6.1600 c3         1 S35       0.002567
     27 O16          5.6910     7.7070    -7.1040 oh         1 S35      -0.581800
     28 N8           4.2930     2.8080    -6.6180 na         1 S35       0.591300
     29 C6           5.0830     2.5120    -7.7380 ca         1 S35      -0.149200
     30 C5           4.8150     3.1190    -8.9570 ca         1 S35      -0.070000
     31 C4           5.5940     2.8260   -10.0590 ca         1 S35      -0.112000
     32 C3           6.6410     1.9290    -9.9500 ca         1 S35      -0.078000
     33 C2           6.9120     1.3220    -8.7380 ca         1 S35      -0.131000
     34 C1           6.1390     1.6150    -7.6290 ca         1 S35       0.136900
     35 F7           6.4070     1.0260    -6.4430 f          1 S35      -0.112900
     36 H351        -0.3610    -0.9260    -0.4310 hc         1 S35       0.014367
     37 H352        -0.3610     0.8360    -0.5870 hc         1 S35       0.014367
     38 H353        -0.3610     0.0900     1.0170 hc         1 S35       0.014367
     39 H31          1.6570     0.0010     2.1360 ha         1 S35       0.094000
     40 H32          4.1220     0.0010     2.1370 ha         1 S35       0.088000
     41 H33          5.3560    -0.0000     0.0020 ha         1 S35       0.090000
     42 H34          4.1230    -0.0060    -2.1350 ha         1 S35       0.108000
     43 H24          0.5300     0.5560    -2.3940 h1         1 S35       0.081700
     44 H251         0.5740    -1.9310    -2.0730 hc         1 S35       0.020200
     45 H252         2.0210    -2.0000    -3.0890 hc         1 S35       0.020200
     46 H23          2.7880     0.0040    -4.1780 hn         1 S35       0.187500
     47 H11          2.6770     4.7100    -4.5480 ha         1 S35       0.155000
     48 H141         2.8250     6.4190    -5.9530 h1         1 S35       0.026200
     49 H142         4.4060     6.4920    -5.1630 h1         1 S35       0.026200
     50 H15          3.8250     7.5280    -7.9610 h1         1 S35       0.007700
     51 H16          5.9470     7.4110    -7.9610 ho         1 S35       0.391000
     52 H191         5.4520     8.8380    -5.0080 hc         1 S35       0.009144
     53 H192         3.9200     8.4060    -4.2370 hc         1 S35       0.009144
     54 H193         4.2780    10.0980    -4.6050 hc         1 S35       0.009144
     55 H201         3.7350     9.9530    -8.1980 hc         1 S35       0.009144
     56 H202         3.6420    11.0080    -6.7820 hc         1 S35       0.009144
     57 H203         5.1770    10.2450    -7.2170 hc         1 S35       0.009144
     58 H181         1.9930     8.2210    -5.2910 hc         1 S35       0.009144
     59 H182         1.8020     8.3680    -7.0440 hc         1 S35       0.009144
     60 H183         1.8220     9.8180    -6.0320 hc         1 S35       0.009144
     61 H5           3.9950     3.8220    -9.0450 ha         1 S35       0.122000
     62 H4           5.3850     3.2990   -11.0110 ha         1 S35       0.104000
     63 H3           7.2490     1.6990   -10.8170 ha         1 S35       0.102000
     64 H2           7.7340     0.6210    -8.6550 ha         1 S35       0.119000
@<TRIPOS>BOND
     1     1     2 1   
     2     1    36 1   
     3     1    37 1   
     4     1    38 1   
     5     2     3 ar  
     6     2     7 ar  
     7     3     4 ar  
     8     3    39 1   
     9     4     5 ar  
    10     4    40 1   
    11     5     6 ar  
    12     5    41 1   
    13     6     7 ar  
    14     6    42 1   
    15     7     8 1   
    16     8     9 1   
    17     8    13 1   
    18     8    43 1   
    19     9    10 1   
    20     9    44 1   
    21     9    45 1   
    22    10    11 1   
    23    10    12 1   
    24    13    14 1   
    25    13    46 1   
    26    14    15 2   
    27    14    16 1   
    28    16    17 2   
    29    16    18 1   
    30    17    28 1   
    31    18    19 2   
    32    18    47 1   
    33    19    20 1   
    34    19    28 1   
    35    20    21 1   
    36    21    22 1   
    37    21    48 1   
    38    21    49 1   
    39    22    23 1   
    40    22    27 1   
    41    22    50 1   
    42    23    24 1   
    43    23    25 1   
    44    23    26 1   
    45    24    52 1   
    46    24    53 1   
    47    24    54 1   
    48    25    55 1   
    49    25    56 1   
    50    25    57 1   
    51    26    58 1   
    52    26    59 1   
    53    26    60 1   
    54    27    51 1   
    55    28    29 1   
    56    29    30 ar  
    57    29    34 ar  
    58    30    31 ar  
    59    30    61 1   
    60    31    32 ar  
    61    31    62 1   
    62    32    33 ar  
    63    32    63 1   
    64    33    34 ar  
    65    33    64 1   
    66    34    35 1   
@<TRIPOS>SUBSTRUCTURE
     1 S35         1 TEMP              0 ****  ****    0 ROOT
