@<TRIPOS>MOLECULE
molecule
   64    66     1     0     0
SMALL
bcc


@<TRIPOS>ATOM
      1 C35          0.0000     0.0000     0.0000 c3         1 S35      -0.051800
      2 C30          1.5070     0.0000     0.0000 ca         1 S35      -0.070300
      3 C31          2.1990     0.0000     1.1980 ca         1 S35      -0.136000
      4 C32          3.5810    -0.0000     1.1980 ca         1 S35      -0.147000
      5 C33          4.2720    -0.0010     0.0010 ca         1 S35      -0.142000
      6 C34          3.5810    -0.0030    -1.1970 ca         1 S35      -0.116000
      7 C29          2.1990    -0.0060    -1.1970 ca         1 S35      -0.071300
      8 C24          1.4460    -0.0130    -2.5020 c3         1 S35       0.171000
      9 C25          1.1070    -1.4550    -2.8870 c3         1 S35      -0.196400
     10 C26          0.2410    -1.4540    -4.1200 c          1 S35       0.883600
     11 O28         -0.1560    -0.4090    -4.5800 o          1 S35      -0.843800
     12 O27         -0.0900    -2.6150    -4.7090 o          1 S35      -0.843800
     13 N23          2.2750     0.5890    -3.5480 ns         1 S35      -0.523900
     14 C21          2.3110     1.9290    -3.6920 c          1 S35       0.600600
     15 O22          1.7270     2.6410    -2.8970 o          1 S35      -0.619100
     16 C10          3.0580     2.5320    -4.8130 cc         1 S35       0.345800
     17 N9           3.7300     1.8740    -5.7390 nd         1 S35      -0.466800
     18 C11          3.1740     3.9110    -5.0850 cc         1 S35      -0.368300
     19 C12          3.9380     4.0530    -6.1960 cd         1 S35       0.132800
     20 O13          4.2840     5.2250    -6.7850 os         1 S35      -0.333900
     21 C14          3.8950     6.4270    -6.1170 c3         1 S35       0.129400
     22 C15          4.2700     7.6340    -6.9780 c3         1 S35       0.158100
     23 C17          3.7500     8.9130    -6.3180 c3         1 S35      -0.070000
     24 C19          4.3970     9.0750    -4.9410 c3         1 S35      -0.084767
     25 C20          4.1020    10.1180    -7.1920 c3         1 S35      -0.084767
     26 C18          2.2310     8.8230    -6.1600 c3         1 S35      -0.084767
     27 O16          5.6910     7.7070    -7.1040 oh         1 S35      -0.600800
     28 N8           4.2930     2.8080    -6.6180 na         1 S35       0.131300
     29 C6           5.0830     2.5120    -7.7380 ca         1 S35       0.010800
     30 C5           4.8150     3.1190    -8.9570 ca         1 S35      -0.102000
     31 C4           5.5940     2.8260   -10.0590 ca         1 S35      -0.141000
     32 C3           6.6410     1.9290    -9.9500 ca         1 S35      -0.112000
     33 C2           6.9120     1.3220    -8.7380 ca         1 S35      -0.165000
     34 C1           6.1390     1.6150    -7.6290 ca         1 S35       0.150900
     35 F7           6.4070     1.0260    -6.4430 f          1 S35      -0.118900
     36 H351        -0.3610    -0.9260    -0.4310 hc         1 S35       0.046033
     37 H352        -0.3610     0.8360    -0.5870 hc         1 S35       0.046033
     38 H353        -0.3610     0.0900     1.0170 hc         1 S35       0.046033
     39 H31          1.6570     0.0010     2.1360 ha         1 S35       0.115000
     40 H32          4.1220     0.0010     2.1370 ha         1 S35       0.110000
     41 H33          5.3560    -0.0000     0.0020 ha         1 S35       0.113000
     42 H34          4.1230    -0.0060    -2.1350 ha         1 S35       0.133000
     43 H24          0.5300     0.5560    -2.3940 h1         1 S35       0.100700
     44 H251         0.5740    -1.9310    -2.0730 hc         1 S35       0.043700
     45 H252         2.0210    -2.0000    -3.0890 hc         1 S35       0.043700
     46 H23          2.7880     0.0040    -4.1780 hn         1 S35       0.331500
     47 H11          2.6770     4.7100    -4.5480 ha         1 S35       0.171000
     48 H141         2.8250     6.4190    -5.9530 h1         1 S35       0.056700
     49 H142         4.4060     6.4920    -5.1630 h1         1 S35       0.056700
     50 H15          3.8250     7.5280    -7.9610 h1         1 S35       0.040700
     51 H16          5.9470     7.4110    -7.9610 ho         1 S35       0.406000
     52 H191         5.4520     8.8380    -5.0080 hc         1 S35       0.039367
     53 H192         3.9200     8.4060    -4.2370 hc         1 S35       0.039367
     54 H193         4.2780    10.0980    -4.6050 hc         1 S35       0.039367
     55 H201         3.7350     9.9530    -8.1980 hc         1 S35       0.039367
     56 H202         3.6420    11.0080    -6.7820 hc         1 S35       0.039367
     57 H203         5.1770    10.2450    -7.2170 hc         1 S35       0.039367
     58 H181         1.9930     8.2210    -5.2910 hc         1 S35       0.039367
     59 H182         1.8020     8.3680    -7.0440 hc         1 S35       0.039367
     60 H183         1.8220     9.8180    -6.0320 hc         1 S35       0.039367
     61 H5           3.9950     3.8220    -9.0450 ha         1 S35       0.152000
     62 H4           5.3850     3.2990   -11.0110 ha         1 S35       0.132000
     63 H3           7.2490     1.6990   -10.8170 ha         1 S35       0.131000
     64 H2           7.7340     0.6210    -8.6550 ha         1 S35       0.146000
@<TRIPOS>BOND
     1     1     2 1
     2     2     3 ar
     3     2     7 ar
     4     3     4 ar
     5     4     5 ar
     6     5     6 ar
     7     6     7 ar
     8     7     8 1
     9     8     9 1
    10     8    13 1
    11     9    10 1
    12    10    11 1
    13    10    12 1
    14    13    14 1
    15    14    15 2
    16    14    16 1
    17    16    17 2
    18    16    18 1
    19    17    28 1
    20    18    19 2
    21    19    20 1
    22    19    28 1
    23    20    21 1
    24    21    22 1
    25    22    23 1
    26    22    27 1
    27    23    24 1
    28    23    25 1
    29    23    26 1
    30    28    29 1
    31    29    30 ar
    32    29    34 ar
    33    30    31 ar
    34    31    32 ar
    35    32    33 ar
    36    33    34 ar
    37    34    35 1
    38     1    36 1
    39     1    37 1
    40     1    38 1
    41     3    39 1
    42     4    40 1
    43     5    41 1
    44     6    42 1
    45     8    43 1
    46     9    44 1
    47     9    45 1
    48    13    46 1
    49    18    47 1
    50    21    48 1
    51    21    49 1
    52    22    50 1
    53    27    51 1
    54    24    52 1
    55    24    53 1
    56    24    54 1
    57    25    55 1
    58    25    56 1
    59    25    57 1
    60    26    58 1
    61    26    59 1
    62    26    60 1
    63    30    61 1
    64    31    62 1
    65    32    63 1
    66    33    64 1
@<TRIPOS>SUBSTRUCTURE
     1 S35         1 TEMP              0 ****  ****    0 ROOT
