@<TRIPOS>MOLECULE
molecule
   44    46     1     0     0
SMALL
bcc


@<TRIPOS>ATOM
      1 C01          0.0000     0.0000     0.0000 ca         1 S36      -0.273000
      2 C02          1.3870     0.0000     0.0000 ca         1 S36       0.168100
      3 C03          2.0890     0.0000     1.2020 ca         1 S36      -0.125300
      4 C04          1.4120     0.0020     2.3990 ca         1 S36      -0.061000
      5 C05          0.0130     0.0030     2.4120 ca         1 S36      -0.186600
      6 C06         -0.6930     0.0010     1.2000 ca         1 S36       0.195100
      7 C07         -0.7150     0.0040     3.6920 c          1 S36       0.694700
      8 N08         -0.4080    -0.9000     4.6430 n          1 S36      -0.489800
      9 O09         -1.5930     0.8220     3.8900 o          1 S36      -0.598100
     10 O10         -2.0500     0.0080     1.2020 oh         1 S36      -0.493100
     11 O11          2.0620    -0.0030    -1.1780 oh         1 S36      -0.502100
     12 C12          3.5960    -0.0000     1.1910 c3         1 S36      -0.025400
     13 C13          4.1120     1.2500     1.9070 c3         1 S36      -0.086100
     14 C14          4.1100    -1.2490     1.9100 c3         1 S36      -0.086100
     15 C15         -1.1770    -0.9840     5.8960 c3         1 S36       0.109000
     16 C16         -1.8680    -2.3470     5.9320 c3         1 S36      -0.057100
     17 C17         -0.9020    -3.4470     5.5810 ca         1 S36      -0.064300
     18 C18          0.2730    -3.2210     4.9000 ca         1 S36      -0.099300
     19 C19          0.7010    -1.8440     4.4690 c3         1 S36       0.143300
     20 C20         -1.2330    -4.7420     5.9620 ca         1 S36      -0.128000
     21 C21         -0.4000    -5.7980     5.6610 ca         1 S36      -0.124000
     22 C22          0.7780    -5.5690     4.9720 ca         1 S36      -0.128000
     23 C23          1.1100    -4.2850     4.5930 ca         1 S36      -0.124000
     24 H1          -0.5410    -0.0010    -0.9380 ha         1 S36       0.143000
     25 H2           1.9630     0.0020     3.3320 ha         1 S36       0.147000
     26 H3          -2.3610     0.7110     0.6560 ho         1 S36       0.429000
     27 H4           1.6200     0.5560    -1.7950 ho         1 S36       0.425000
     28 H5           3.9510    -0.0020     0.1670 hc         1 S36       0.074700
     29 H6           3.5210     2.1070     1.6070 hc         1 S36       0.036200
     30 H7           4.0300     1.1120     2.9790 hc         1 S36       0.036200
     31 H8           5.1490     1.4150     1.6430 hc         1 S36       0.036200
     32 H9           4.0650    -1.0930     2.9810 hc         1 S36       0.036200
     33 H10          3.4930    -2.0990     1.6430 hc         1 S36       0.036200
     34 H11          5.1340    -1.4400     1.6150 hc         1 S36       0.036200
     35 H12         -0.4970    -0.9090     6.7350 h1         1 S36       0.066700
     36 H13         -1.9300    -0.2050     5.9020 h1         1 S36       0.066700
     37 H14         -2.2350    -2.5190     6.9370 hc         1 S36       0.063200
     38 H15         -2.6690    -2.3460     5.2030 hc         1 S36       0.063200
     39 H16          1.5280    -1.5260     5.0920 h1         1 S36       0.063200
     40 H17          0.9690    -1.8750     3.4200 h1         1 S36       0.063200
     41 H18         -2.1550    -4.9230     6.5010 ha         1 S36       0.130000
     42 H19         -0.6670    -6.8030     5.9620 ha         1 S36       0.130000
     43 H20          1.4370    -6.3950     4.7320 ha         1 S36       0.130000
     44 H21          2.0320    -4.1050     4.0530 ha         1 S36       0.128000
@<TRIPOS>BOND
     1    11     2 1
     2     2     1 ar
     3     2     3 ar
     4    12     3 1
     5    12    14 1
     6    12    13 1
     7     1     6 ar
     8     3     4 ar
     9     6    10 1
    10     6     5 ar
    11     4     5 ar
    12    23    22 ar
    13    23    18 ar
    14     5     7 1
    15    22    21 ar
    16    19    18 1
    17    19     8 1
    18    18    17 ar
    19     7     8 1
    20     7     9 2
    21    21    20 ar
    22     8    15 1
    23    17    20 ar
    24    17    16 1
    25    15    16 1
    26     1    24 1
    27     4    25 1
    28    10    26 1
    29    11    27 1
    30    12    28 1
    31    13    29 1
    32    13    30 1
    33    13    31 1
    34    14    32 1
    35    14    33 1
    36    14    34 1
    37    15    35 1
    38    15    36 1
    39    16    37 1
    40    16    38 1
    41    19    39 1
    42    19    40 1
    43    20    41 1
    44    21    42 1
    45    22    43 1
    46    23    44 1
@<TRIPOS>SUBSTRUCTURE
     1 S36         1 TEMP              0 ****  ****    0 ROOT
