@<TRIPOS>MOLECULE
S38
   34    36     1     0     0
SMALL
bcc


@<TRIPOS>ATOM
      1 C1           0.0000     0.0000     0.0000 ca         1 S38      -0.085000
      2 C2           1.3970     0.0000     0.0000 ca         1 S38       0.080000
      3 C3           2.0950     0.0000     1.2100 ca         1 S38      -0.085000
      4 C4           1.4070     0.0010     2.4020 ca         1 S38      -0.102000
      5 C5           0.0100     0.0010     2.4030 ca         1 S38      -0.160600
      6 C6          -0.6890     0.0000     1.1930 ca         1 S38      -0.102000
      7 C7          -0.7290     0.0010     3.6830 c          1 S38       0.560700
      8 N8          -2.0770     0.0010     3.6840 ns         1 S38      -0.215900
      9 C9          -2.8090     0.0010     4.9530 cx         1 S38      -0.036300
     10 C10         -4.2270    -0.5730     4.9500 cx         1 S38      -0.032400
     11 C11         -4.0130     0.9370     5.0730 cx         1 S38      -0.127400
     12 C12         -4.6800    -1.3140     6.1810 ca         1 S38      -0.070300
     13 C13         -5.0610    -2.6400     6.0890 ca         1 S38      -0.106500
     14 C14         -5.4760    -3.3200     7.2180 ca         1 S38      -0.078500
     15 C15         -5.5110    -2.6750     8.4400 ca         1 S38      -0.112000
     16 C16         -5.1290    -1.3490     8.5330 ca         1 S38      -0.078500
     17 C17         -4.7100    -0.6700     7.4040 ca         1 S38      -0.106500
     18 O18         -0.1210     0.0010     4.7360 o          1 S38      -0.638100
     19 C19          2.1130    -0.0010    -1.2400 cg         1 S38       0.220800
     20 N20          2.6900    -0.0180    -2.2190 n1         1 S38      -0.366800
     21 H1          -0.3990    -0.0470    -1.0060 ha         1 S38       0.136000
     22 H3           3.0390    -0.0190     1.7410 ha         1 S38       0.136000
     23 H4           1.5390    -0.2530     3.4470 ha         1 S38       0.145000
     24 H6          -1.7100     0.2940     0.9820 ha         1 S38       0.145000
     25 HN8         -2.0080    -0.4490     2.7930 hn         1 S38       0.209500
     26 H9          -2.0940     0.0470     5.7660 h1         1 S38       0.108700
     27 H10         -4.4180    -0.4530     3.8910 hc         1 S38       0.083700
     28 H11         -4.1840     1.5580     5.9440 hc         1 S38       0.057700
     29 H11A        -4.1210     1.3650     4.0840 hc         1 S38       0.057700
     30 H13         -4.6190    -2.9610     5.1530 ha         1 S38       0.120500
     31 H14         -5.4920    -4.3850     7.0210 ha         1 S38       0.108500
     32 H15         -5.7590    -3.2340     9.3340 ha         1 S38       0.104000
     33 H16         -5.0660    -1.2380     9.6090 ha         1 S38       0.108500
     34 H17         -4.2040     0.2590     7.1710 ha         1 S38       0.120500
@<TRIPOS>BOND
     1     1     2 ar  
     2     1     6 ar  
     3     1    21 1   
     4     2     3 ar  
     5     2    19 1   
     6     3     4 ar  
     7     3    22 1   
     8     4     5 ar  
     9     4    23 1   
    10     5     6 ar  
    11     5     7 1   
    12     6    24 1   
    13     7     8 1   
    14     7    18 2   
    15     8     9 1   
    16     8    25 1   
    17     9    10 1   
    18     9    11 1   
    19     9    26 1   
    20    10    11 1   
    21    10    12 1   
    22    10    27 1   
    23    11    28 1   
    24    11    29 1   
    25    12    13 ar  
    26    12    17 ar  
    27    13    14 ar  
    28    13    30 1   
    29    14    15 ar  
    30    14    31 1   
    31    15    16 ar  
    32    15    32 1   
    33    16    17 ar  
    34    16    33 1   
    35    17    34 1   
    36    19    20 3   
@<TRIPOS>SUBSTRUCTURE
     1 S38         1 TEMP              0 ****  ****    0 ROOT
