@<TRIPOS>MOLECULE
molecule
   26    26     1     0     0
SMALL
bcc


@<TRIPOS>ATOM
      1 C1           0.0000     0.0000     0.0000 ca         1 S3B       0.125100
      2 O2          -0.6820     0.0060    -1.1730 os         1 S3B      -0.311200
      3 C3          -0.9830     1.2050    -1.6970 c          1 S3B       0.658100
      4 C4          -1.7380     1.2900    -2.9980 c3         1 S3B      -0.124400
      5 C5          -1.9510     2.7600    -3.3700 c3         1 S3B      -0.081100
      6 O6          -0.6490     2.2160    -1.1260 o          1 S3B      -0.555000
      7 C7           1.3870     0.0000     0.0000 ca         1 S3B      -0.115300
      8 C8           2.1380     0.0010    -1.3060 c3         1 S3B      -0.040800
      9 C9           2.0790     0.0000     1.1950 ca         1 S3B      -0.143000
     10 C10          1.3970    -0.0010     2.4000 ca         1 S3B      -0.160000
     11 C11          0.0190    -0.0020     2.4190 ca         1 S3B      -0.088000
     12 C12         -0.6940    -0.0010     1.2170 ca         1 S3B      -0.095600
     13 C13         -2.1690     0.0060     1.2310 c          1 S3B       0.887200
     14 O14         -2.7860     0.0110     0.1840 o          1 S3B      -0.834800
     15 O15         -2.8320     0.0050     2.4030 o          1 S3B      -0.834800
     16 H4          -2.6990     0.8020    -2.8910 hc         1 S3B       0.067200
     17 H4A         -1.1690     0.8000    -3.7790 hc         1 S3B       0.067200
     18 H5          -0.9900     3.2480    -3.4780 hc         1 S3B       0.037033
     19 H5A         -2.4950     2.8210    -4.3050 hc         1 S3B       0.037033
     20 H5B         -2.5200     3.2510    -2.5890 hc         1 S3B       0.037033
     21 H8           2.1070     0.9930    -1.7390 hc         1 S3B       0.033033
     22 H8A          3.1690    -0.2840    -1.1300 hc         1 S3B       0.033033
     23 H8B          1.6800    -0.7050    -1.9870 hc         1 S3B       0.033033
     24 H9           3.1630     0.0000     1.1890 ha         1 S3B       0.106000
     25 H10          1.9490    -0.0020     3.3330 ha         1 S3B       0.106000
     26 H11         -0.5100    -0.0030     3.3650 ha         1 S3B       0.157000
@<TRIPOS>BOND
     1     7     1 ar
     2     2     1 1
     3     1    12 ar
     4     3     2 1
     5     4     3 1
     6     3     6 2
     7     5     4 1
     8     4    16 1
     9     4    17 1
    10     5    18 1
    11     5    19 1
    12     5    20 1
    13     8     7 1
    14     7     9 ar
    15     8    21 1
    16     8    22 1
    17     8    23 1
    18     9    10 ar
    19     9    24 1
    20    10    11 ar
    21    10    25 1
    22    12    11 ar
    23    11    26 1
    24    12    13 1
    25    14    13 1
    26    13    15 1
@<TRIPOS>SUBSTRUCTURE
     1 S3B         1 TEMP              0 ****  ****    0 ROOT
