@<TRIPOS>MOLECULE
S3B
   26    26     1     0     0
SMALL
bcc


@<TRIPOS>ATOM
      1 C1          0.1770    0.1990   -0.0310 ca        1 S3B      0.149100
      2 O2         -0.3870    0.3480   -1.2960 os        1 S3B     -0.385200
      3 C3         -1.0320    1.5380   -1.5960 c         1 S3B      0.710100
      4 C4         -2.0680    1.3530   -2.6610 c3        1 S3B     -0.135400
      5 C5         -2.1010    2.5170   -3.6150 c3        1 S3B     -0.087100
      6 O6         -0.6260    2.5770   -1.0770 o         1 S3B     -0.558000
      7 C7          1.5780    0.0670    0.0420 ca        1 S3B     -0.113300
      8 C8          2.4160    0.2220   -1.1680 c3        1 S3B     -0.032800
      9 C9          2.1550   -0.2240    1.2810 ca        1 S3B     -0.142000
     10 C10         1.3590   -0.3730    2.4150 ca        1 S3B     -0.169000
     11 C11        -0.0240   -0.2320    2.3250 ca        1 S3B     -0.097000
     12 C12        -0.6370    0.0600    1.1030 ca        1 S3B     -0.134600
     13 C13        -2.1460    0.2160    1.0440 c         1 S3B      0.923200
     14 O14        -2.6480    0.7920    0.0320 o         1 S3B     -0.831300
     15 O15        -2.8300   -0.2310    2.0050 o         1 S3B     -0.831300
     16 H4         -1.8790    0.3930   -3.2070 hc        1 S3B      0.092700
     17 H4A        -3.0490    1.2490   -2.1140 hc        1 S3B      0.092700
     18 H5         -1.1670    2.5590   -4.2270 hc        1 S3B      0.030700
     19 H5A        -2.9730    2.4200   -4.3050 hc        1 S3B      0.030700
     20 H5B        -2.1910    3.4770   -3.0500 hc        1 S3B      0.030700
     21 H8          2.0340    1.0670   -1.7940 hc        1 S3B      0.031700
     22 H8A         3.4820    0.4230   -0.9010 hc        1 S3B      0.031700
     23 H8B         2.3740   -0.7100   -1.7860 hc        1 S3B      0.031700
     24 H9          3.2460   -0.3320    1.3570 ha        1 S3B      0.105000
     25 H10         1.8270   -0.6000    3.3830 ha        1 S3B      0.106000
     26 H11        -0.6700   -0.3550    3.2100 ha        1 S3B      0.152000
@<TRIPOS>BOND
     1    1    2 1   
     2    1    7 ar  
     3    1   12 ar  
     4    2    3 1   
     5    3    4 1   
     6    3    6 2   
     7    4    5 1   
     8    4   16 1   
     9    4   17 1   
    10    5   18 1   
    11    5   19 1   
    12    5   20 1   
    13    7    8 1   
    14    7    9 ar  
    15    8   21 1   
    16    8   22 1   
    17    8   23 1   
    18    9   10 ar  
    19    9   24 1   
    20   10   11 ar  
    21   10   25 1   
    22   11   12 ar  
    23   11   26 1   
    24   12   13 1   
    25   13   14 1   
    26   13   15 1   
@<TRIPOS>SUBSTRUCTURE
     1 S3B         1 TEMP              0 ****  ****    0 ROOT
