@<TRIPOS>MOLECULE
S3C
   19    19     1     0     0
SMALL
bcc


@<TRIPOS>ATOM
      1 C10        -0.1590   -0.1990    0.0860 ca        1 S3C      0.029400
      2 C15         1.3650    0.1270    2.4090 ca        1 S3C     -0.132000
      3 CL1         3.6480    0.4740    1.0860 cl        1 S3C     -0.075400
      4 C2          1.9720    0.2040    1.1510 ca        1 S3C      0.028400
      5 C3          1.2230    0.0560   -0.0310 ca        1 S3C      0.030200
      6 C4          1.8600    0.1060   -1.3400 ce        1 S3C     -0.195200
      7 C5          2.1120    1.2020   -2.0690 cf        1 S3C      0.010400
      8 C6          2.8050    1.0440   -3.4320 c         1 S3C      0.906800
      9 O7          3.0350    2.0950   -4.0950 o         1 S3C     -0.815300
     10 O8          3.1050   -0.1190   -3.8090 o         1 S3C     -0.815300
     11 S9          1.6930    2.7690   -1.5540 sh        1 S3C     -0.406400
     12 CL2        -1.0940   -0.4140   -1.3120 cl        1 S3C     -0.056400
     13 C12        -0.7610   -0.2790    1.3500 ca        1 S3C      0.009400
     14 CL3        -2.4300   -0.5820    1.5120 cl        1 S3C     -0.104400
     15 C14        -0.0000   -0.1130    2.5090 ca        1 S3C     -0.135000
     16 H1          1.9660    0.2550    3.3210 ha        1 S3C      0.138000
     17 H2          2.1540   -0.8790   -1.7540 ha        1 S3C      0.176000
     18 H5         -0.4780   -0.1710    3.4980 ha        1 S3C      0.137000
     19 H3          2.1580    3.4460   -2.6200 hs        1 S3C      0.270800
@<TRIPOS>BOND
     1    1    5 ar  
     2    1   12 1   
     3    1   13 ar  
     4    2    4 ar  
     5    2   15 ar  
     6    2   16 1   
     7    3    4 1   
     8    4    5 ar  
     9    5    6 1   
    10    6    7 2   
    11    6   17 1   
    12    7    8 1   
    13    7   11 1   
    14    8    9 1   
    15    8   10 1   
    16   11   19 1   
    17   13   14 1   
    18   13   15 ar  
    19   15   18 1   
@<TRIPOS>SUBSTRUCTURE
     1 S3C         1 TEMP              0 ****  ****    0 ROOT
