@<TRIPOS>MOLECULE
molecule
   19    19     1     0     0
SMALL
bcc


@<TRIPOS>ATOM
      1 C10          0.0000     0.0000     0.0000 ca         1 S3C       0.051400
      2 C15          1.3920    -0.0000     2.4050 ca         1 S3C      -0.127000
      3 Cl1          3.8290    -0.0000     1.2300 cl         1 S3C      -0.097400
      4 C2           2.0930     0.0000     1.2170 ca         1 S3C       0.036400
      5 C3           1.4000     0.0000     0.0000 ca         1 S3C       0.011200
      6 C4           2.1390     0.0010    -1.2710 ce         1 S3C      -0.151200
      7 C5           1.9770     1.0200    -2.1490 cf         1 S3C       0.065400
      8 C6           2.6060     0.9550    -3.4740 c          1 S3C       0.872800
      9 O7           2.4440     1.9680    -4.3480 o          1 S3C      -0.821300
     10 O8           3.2720    -0.0150    -3.7840 o          1 S3C      -0.821300
     11 S9           1.0110     2.4230    -1.7000 sh         1 S3C      -0.415400
     12 Cl2         -0.8700    -0.0070    -1.5020 cl         1 S3C      -0.048400
     13 C12         -0.6860    -0.0010     1.1990 ca         1 S3C       0.028400
     14 Cl3         -2.4220    -0.0020     1.2030 cl         1 S3C      -0.112400
     15 C14          0.0080    -0.0020     2.3970 ca         1 S3C      -0.132000
     16 H1           1.9260    -0.0010     3.3470 ha         1 S3C       0.136000
     17 H2           2.7340    -0.8610    -1.5490 ha         1 S3C       0.178000
     18 H5          -0.5360    -0.0020     3.3340 ha         1 S3C       0.137000
     19 H3           1.7680     3.5130    -1.7430 hs         1 S3C       0.208800
@<TRIPOS>BOND
     1    10     8 1
     2    11     7 1
     3     8     7 1
     4     8     9 1
     5     7     6 2
     6    12     1 1
     7     6     5 1
     8     1     5 ar
     9     1    13 ar
    10    14    13 1
    11     5     4 ar
    12    13    15 ar
    13     4     3 1
    14     4     2 ar
    15    15     2 ar
    16     2    16 1
    17     6    17 1
    18    15    18 1
    19    11    19 1
@<TRIPOS>SUBSTRUCTURE
     1 S3C         1 TEMP              0 ****  ****    0 ROOT
