@<TRIPOS>MOLECULE
molecule
   51    53     1     0     0
SMALL
bcc


@<TRIPOS>ATOM
      1 C1           0.0000     0.0000     0.0000 ca         1 S3G      -0.143000
      2 C2           1.3860     0.0000     0.0000 ca         1 S3G      -0.141000
      3 C3          -2.4410     6.9360    -1.6410 ca         1 S3G      -0.218800
      4 C4          -3.0310     6.5100     0.6440 ca         1 S3G      -0.218800
      5 C5          -2.6950     8.2730    -1.4090 ca         1 S3G       0.405200
      6 C6          -3.2610     7.8640     0.7890 ca         1 S3G       0.405200
      7 C7          -2.6100     6.0220    -0.5970 ca         1 S3G      -0.090600
      8 C8          -0.0040    -0.0010     2.4040 ca         1 S3G      -0.055600
      9 C9          -0.6970     0.0000     1.1880 ca         1 S3G      -0.077300
     10 C10          2.0860     0.0000     1.1950 ca         1 S3G       0.023100
     11 C11          1.3960    -0.0010     2.4040 ca         1 S3G       0.067100
     12 C12         -2.4600     4.5300    -0.7380 c          1 S3G       0.653700
     13 C13         -0.7460    -0.0000     3.6790 c          1 S3G       0.888200
     14 C14          3.5470     0.4110     2.8330 c3         1 S3G       0.327200
     15 C15         -6.2600     2.8450     1.8130 c3         1 S3G      -0.091100
     16 C16         -4.1590     3.3040     3.0850 c3         1 S3G      -0.091100
     17 C17         -2.2040     0.0010     1.1790 c3         1 S3G      -0.016100
     18 C18         -4.2370     1.4290     1.4350 c3         1 S3G      -0.068400
     19 C19         -2.3120     2.2330     0.0620 c3         1 S3G       0.109000
     20 C20         -4.7330     2.8430     1.7430 c3         1 S3G      -0.102700
     21 C21         -2.7130     1.4380     1.3060 c3         1 S3G      -0.092700
     22 N22         -3.0900     8.6920    -0.2240 nb         1 S3G      -0.692000
     23 N23         -2.6000     3.6530     0.2760 ns         1 S3G      -0.560900
     24 O24         -0.9970     1.1630     4.3110 o          1 S3G      -0.828800
     25 O25         -2.0950     4.1420    -1.8300 o          1 S3G      -0.621100
     26 O26         -1.1290    -1.0480     4.1580 o          1 S3G      -0.828800
     27 O27          3.4250    -0.0000     1.4580 os         1 S3G      -0.348900
     28 O28          2.2990    -0.0010     3.4230 os         1 S3G      -0.300900
     29 H1          -0.5380     0.0010    -0.9400 ha         1 S3G       0.122000
     30 H2           1.9250    -0.0000    -0.9400 ha         1 S3G       0.120000
     31 H4          -3.1730     5.8350     1.4800 ha         1 S3G       0.152500
     32 H6          -3.5880     8.2520     1.7460 h4         1 S3G       0.020100
     33 H171        -2.5700    -0.5870     2.0120 hc         1 S3G       0.058200
     34 H172        -2.5590    -0.4280     0.2500 hc         1 S3G       0.058200
     35 H23         -2.7500     3.9870     1.2080 hn         1 S3G       0.330500
     36 H141         3.6610     1.4860     2.8990 h2         1 S3G       0.052700
     37 H142         4.3770    -0.0970     3.3080 h2         1 S3G       0.052700
     38 H151        -6.6660     2.5490     0.8540 hc         1 S3G       0.034033
     39 H152        -6.6090     3.8400     2.0620 hc         1 S3G       0.034033
     40 H153        -6.5870     2.1470     2.5750 hc         1 S3G       0.034033
     41 H20         -4.4070     3.5180     0.9600 hc         1 S3G       0.057700
     42 H161        -4.3920     2.5700     3.8470 hc         1 S3G       0.034033
     43 H162        -3.0850     3.4100     3.0010 hc         1 S3G       0.034033
     44 H163        -4.5960     4.2570     3.3560 hc         1 S3G       0.034033
     45 H21         -2.2790     1.8990     2.1840 hc         1 S3G       0.110700
     46 H181        -4.5270     0.7620     2.2390 hc         1 S3G       0.043200
     47 H182        -4.6770     1.0860     0.5060 hc         1 S3G       0.043200
     48 H191        -1.2530     2.1040    -0.1240 h1         1 S3G       0.055700
     49 H192        -2.8750     1.8760    -0.7920 h1         1 S3G       0.055700
     50 H3          -2.1160     6.6000    -2.6180 ha         1 S3G       0.152500
     51 H5          -2.5670     8.9880    -2.2130 h4         1 S3G       0.020100
@<TRIPOS>BOND
     1     1     2 ar
     2     1     9 ar
     3     2    10 ar
     4     3     5 ar
     5     3     7 ar
     6     4     6 ar
     7     4     7 ar
     8     5    22 ar
     9     6    22 ar
    10     7    12 1
    11     8     9 ar
    12     8    11 ar
    13     8    13 1
    14     9    17 1
    15    10    11 ar
    16    10    27 1
    17    11    28 1
    18    12    23 1
    19    12    25 2
    20    13    24 1
    21    13    26 1
    22    14    27 1
    23    14    28 1
    24    15    20 1
    25    16    20 1
    26    17    21 1
    27    18    20 1
    28    18    21 1
    29    19    21 1
    30    19    23 1
    31     1    29 1
    32     2    30 1
    33     3    50 1
    34     5    51 1
    35     4    31 1
    36     6    32 1
    37    17    33 1
    38    17    34 1
    39    23    35 1
    40    14    36 1
    41    14    37 1
    42    15    38 1
    43    15    39 1
    44    15    40 1
    45    20    41 1
    46    16    42 1
    47    16    43 1
    48    16    44 1
    49    21    45 1
    50    18    46 1
    51    18    47 1
    52    19    48 1
    53    19    49 1
@<TRIPOS>SUBSTRUCTURE
     1 S3G         1 TEMP              0 ****  ****    0 ROOT
