@<TRIPOS>MOLECULE
S3H
    5     4     1     0     0
SMALL
bcc


@<TRIPOS>ATOM
      1 S3         -0.0890    0.0610   -0.0810 sh        1 S3H     -0.159800
      2 S2          1.6200   -0.0060    0.5400 ss        1 S3H      0.009000
      3 S1          2.6280    0.0690    2.0520 sh        1 S3H     -0.159800
      4 HS3        -0.1310   -0.0670   -1.3980 hs        1 S3H      0.154800
      5 HS1         3.9180   -0.0560    1.7800 hs        1 S3H      0.154800
@<TRIPOS>BOND
     1    1    2 1   
     2    1    4 1   
     3    2    3 1   
     4    3    5 1   
@<TRIPOS>SUBSTRUCTURE
     1 S3H         1 TEMP              0 ****  ****    0 ROOT
