@<TRIPOS>MOLECULE
molecule
    5     4     1     0     0
SMALL
bcc


@<TRIPOS>ATOM
      1 S3           0.0000     0.0000     0.0000 sh         1 S3H      -0.176300
      2 S2           2.0500     0.0000     0.0000 ss         1 S3H       0.048000
      3 S1           2.5110     0.0000     1.9970 sh         1 S3H      -0.176300
      4 HS3         -0.4430     0.0000    -1.2520 hs         1 S3H       0.152300
      5 HS1          3.8290     0.0000     2.1470 hs         1 S3H       0.152300
@<TRIPOS>BOND
     1     1     2 1
     2     1     4 1
     3     3     2 1
     4     3     5 1
@<TRIPOS>SUBSTRUCTURE
     1 S3H         1 TEMP              0 ****  ****    0 ROOT
