@<TRIPOS>MOLECULE
molecule
   44    47     1     0     0
SMALL
bcc


@<TRIPOS>ATOM
      1 F01          0.0000     0.0000     0.0000 f          1 S3N      -0.221633
      2 C02          1.3980     0.0000     0.0000 c3         1 S3N       0.672200
      3 F03          1.8650     0.0000     1.3190 f          1 S3N      -0.221633
      4 F04          1.8650    -1.1430    -0.6590 f          1 S3N      -0.221633
      5 C05          1.9010     1.2300    -0.7090 ca         1 S3N      -0.156300
      6 C06          2.1310     2.3920     0.0060 ca         1 S3N      -0.095000
      7 C07          2.5900     3.5220    -0.6360 ca         1 S3N      -0.087500
      8 C08          2.8260     3.4920    -2.0150 ca         1 S3N      -0.147600
      9 C09          2.5920     2.3140    -2.7300 ca         1 S3N      -0.087500
     10 C10          2.1360     1.1910    -2.0730 ca         1 S3N      -0.095000
     11 C11          3.3160     4.6950    -2.7080 c          1 S3N       0.583700
     12 O12          3.5170     5.7150    -2.0850 o          1 S3N      -0.500100
     13 C13          3.5680     4.6570    -4.1940 c3         1 S3N      -0.167700
     14 C14          2.3030     5.0960    -4.9630 c3         1 S3N       0.150800
     15 N15          2.5050     6.5450    -5.2170 n7         1 S3N      -0.781200
     16 C16          3.9480     6.6610    -5.5500 c3         1 S3N       0.145800
     17 C17          4.6500     5.6870    -4.5790 c3         1 S3N      -0.024400
     18 C18          5.8030     5.0020    -5.2670 ca         1 S3N      -0.050300
     19 C19          7.0640     5.0770    -4.7200 ca         1 S3N      -0.110000
     20 C20          8.1330     4.4430    -5.3560 ca         1 S3N       0.195400
     21 C21          7.9020     3.7320    -6.5550 ca         1 S3N      -0.206600
     22 C22          6.6190     3.6680    -7.0930 ca         1 S3N      -0.050000
     23 C23          5.5780     4.2980    -6.4430 ca         1 S3N      -0.157000
     24 C24          9.0490     3.0770    -7.2000 c          1 S3N       0.705100
     25 O25          8.9190     2.4490    -8.2340 o          1 S3N      -0.620500
     26 N26         10.2560     3.1990    -6.5980 ns         1 S3N      -0.478400
     27 C27         10.3850     3.9020    -5.4430 cc         1 S3N       0.504800
     28 N28          9.3910     4.4920    -4.8510 nd         1 S3N      -0.644100
     29 H06          1.9480     2.4150     1.0740 ha         1 S3N       0.152000
     30 H10          1.9550     0.2770    -2.6260 ha         1 S3N       0.152000
     31 H07          2.7690     4.4310    -0.0750 ha         1 S3N       0.153000
     32 H09          2.7740     2.2820    -3.7980 ha         1 S3N       0.153000
     33 H13          3.8690     3.6640    -4.5050 hc         1 S3N       0.074700
     34 H141         2.2260     4.5570    -5.9000 h1         1 S3N       0.046200
     35 H142         1.4200     4.9400    -4.3560 h1         1 S3N       0.046200
     36 H17          4.9920     6.2180    -3.6990 hc         1 S3N       0.097700
     37 H15          1.9570     6.8250    -6.0060 hn         1 S3N       0.351800
     38 H161         4.2930     7.6740    -5.3820 h1         1 S3N       0.049700
     39 H162         4.1230     6.3610    -6.5760 h1         1 S3N       0.049700
     40 H19          7.2070     5.5390    -3.7500 ha         1 S3N       0.157000
     41 H23          4.5780     4.2450    -6.8550 ha         1 S3N       0.134000
     42 H22          6.4390     3.1210    -8.0100 ha         1 S3N       0.156000
     43 H26         11.0600     2.7650    -7.0070 hn         1 S3N       0.338500
     44 H27         11.3680     3.9750    -4.9940 h5         1 S3N       0.056800
@<TRIPOS>BOND
     1     1     2 1
     2     2     3 1
     3     2     4 1
     4     2     5 1
     5     5     6 ar
     6     5    10 ar
     7     6     7 ar
     8     7     8 ar
     9     8     9 ar
    10     8    11 1
    11     9    10 ar
    12    11    12 2
    13    11    13 1
    14    13    14 1
    15    13    17 1
    16    14    15 1
    17    15    16 1
    18    16    17 1
    19    17    18 1
    20    18    19 ar
    21    18    23 ar
    22    19    20 ar
    23    20    21 ar
    24    20    28 1
    25    21    22 ar
    26    21    24 1
    27    22    23 ar
    28    24    25 2
    29    24    26 1
    30    26    27 1
    31    27    28 2
    32     6    29 1
    33    10    30 1
    34     7    31 1
    35     9    32 1
    36    13    33 1
    37    14    34 1
    38    14    35 1
    39    17    36 1
    40    15    37 1
    41    16    38 1
    42    16    39 1
    43    19    40 1
    44    23    41 1
    45    22    42 1
    46    26    43 1
    47    27    44 1
@<TRIPOS>SUBSTRUCTURE
     1 S3N         1 TEMP              0 ****  ****    0 ROOT
