@<TRIPOS>MOLECULE
S3P
   24    24     1     0     0
SMALL
bcc


@<TRIPOS>ATOM
      1 C1         -0.0660   -0.1420   -0.0370 ce        1 S3P     -0.240400
      2 C2          1.2750   -0.1680    0.0060 c2        1 S3P     -0.121200
      3 C3          2.1140   -0.1020    1.2560 c3        1 S3P      0.197300
      4 C4          1.2880    0.4150    2.4710 c3        1 S3P      0.094100
      5 C5         -0.1520   -0.1170    2.4900 c3        1 S3P      0.138100
      6 C6         -0.8920    0.0910    1.1770 c3        1 S3P     -0.033200
      7 C7         -0.8670   -0.2940   -1.3070 c         1 S3P      0.905800
      8 O1          3.2200    0.7010    1.0890 os        1 S3P     -0.567200
      9 O2          1.2250    1.8330    2.5240 oh        1 S3P     -0.655800
     10 O3         -0.1590   -1.4920    2.8690 oh        1 S3P     -0.648800
     11 O4         -2.1210   -0.0590   -1.2790 o         1 S3P     -0.888300
     12 O5         -0.3080   -0.6630   -2.3860 o         1 S3P     -0.888300
     13 P1          4.7690    0.0640    1.5840 p5        1 S3P      1.315900
     14 O6          5.6680    0.4270    0.4340 o         1 S3P     -0.933167
     15 O7          5.0040    0.8350    2.8570 o         1 S3P     -0.933167
     16 O8          4.5050   -1.4090    1.7730 o         1 S3P     -0.933167
     17 H2          1.8570   -0.2790   -0.9230 ha        1 S3P      0.137000
     18 H3          2.4450   -1.1630    1.5000 h1        1 S3P      0.075700
     19 H4          1.8000    0.0690    3.4160 h1        1 S3P      0.035700
     20 H5         -0.7210    0.3880    3.3240 h1        1 S3P      0.018700
     21 H61        -1.2640    1.1500    1.1450 hc        1 S3P      0.034200
     22 H62        -1.7920   -0.5810    1.1500 hc        1 S3P      0.034200
     23 HO2         2.0130    2.1470    2.0510 ho        1 S3P      0.445000
     24 HO3         0.4290   -1.9420    2.2490 ho        1 S3P      0.414000
@<TRIPOS>BOND
     1    1    2 2   
     2    1    6 1   
     3    1    7 1   
     4    2    3 1   
     5    2   17 1   
     6    3    4 1   
     7    3    8 1   
     8    3   18 1   
     9    4    5 1   
    10    4    9 1   
    11    4   19 1   
    12    5    6 1   
    13    5   10 1   
    14    5   20 1   
    15    6   21 1   
    16    6   22 1   
    17    7   11 1   
    18    7   12 1   
    19    8   13 1   
    20    9   23 1   
    21   10   24 1   
    22   13   14 1   
    23   13   15 1   
    24   13   16 1   
@<TRIPOS>SUBSTRUCTURE
     1 S3P         1 TEMP              0 ****  ****    0 ROOT
