@<TRIPOS>MOLECULE
molecule
   24    24     1     0     0
SMALL
bcc


@<TRIPOS>ATOM
      1 C1           0.0000     0.0000     0.0000 ce         1 S3P      -0.233400
      2 C2           1.3160     0.0000     0.0000 c2         1 S3P      -0.084200
      3 C3           2.1500     0.0000     1.2460 c3         1 S3P       0.207300
      4 C4           1.3030     0.4240     2.4530 c3         1 S3P       0.129100
      5 C5           0.0140    -0.4050     2.4510 c3         1 S3P       0.118100
      6 C6          -0.8340     0.0100     1.2470 c3         1 S3P      -0.009200
      7 C7          -0.6920    -0.0090    -1.2950 c          1 S3P       0.899800
      8 O1           3.2360     0.9140     1.0910 os         1 S3P      -0.530200
      9 O2           0.9850     1.8130     2.3500 oh         1 S3P      -0.585800
     10 O3           0.3360    -1.7930     2.3550 oh         1 S3P      -0.569800
     11 O4          -2.0400    -0.0090    -1.3400 o          1 S3P      -0.893800
     12 O5          -0.0510    -0.0150    -2.3280 o          1 S3P      -0.893800
     13 P1           4.5910     0.0580     1.2440 p5         1 S3P       1.171900
     14 O6           4.6330    -0.9900     0.2020 o          1 S3P      -0.924833
     15 O7           5.8630     1.0310     1.0770 o          1 S3P      -0.924833
     16 O8           4.6290    -0.6290     2.6990 o          1 S3P      -0.924833
     17 H2           1.8270    -0.0000    -0.9550 ha         1 S3P       0.159000
     18 H3           2.5360    -0.9980     1.4160 h1         1 S3P       0.099700
     19 H4           1.8540     0.2370     3.3670 h1         1 S3P       0.044700
     20 H5          -0.5380    -0.2170     3.3640 h1         1 S3P      -0.032300
     21 H61         -1.6570    -0.6860     1.1330 hc         1 S3P       0.031700
     22 H62         -1.2220     1.0080     1.4100 hc         1 S3P       0.031700
     23 HO2          1.2280     2.2510     3.1490 ho         1 S3P       0.360000
     24 HO3         -0.1230    -2.2690     3.0270 ho         1 S3P       0.353000
@<TRIPOS>BOND
     1     1     2 2
     2     1     6 1
     3     1     7 1
     4     2     3 1
     5     2    17 1
     6     3     4 1
     7     3     8 1
     8     3    18 1
     9     4     5 1
    10     4     9 1
    11     4    19 1
    12     5     6 1
    13     5    10 1
    14     5    20 1
    15     6    21 1
    16     6    22 1
    17     7    11 1
    18     7    12 1
    19     8    13 1
    20     9    23 1
    21    10    24 1
    22    13    14 1
    23    13    15 1
    24    13    16 1
@<TRIPOS>SUBSTRUCTURE
     1 S3P         1 TEMP              0 ****  ****    0 ROOT
