@<TRIPOS>MOLECULE
S41
   53    56     1     0     0
SMALL
bcc


@<TRIPOS>ATOM
      1 C1          0.3980   -0.4700    0.6310 ca        1 S41      0.055100
      2 C2          1.4920    0.3960    0.9590 ca        1 S41     -0.072800
      3 C3          1.4430    1.0420    2.1960 ca        1 S41      0.051100
      4 C4          0.3680    0.8350    3.0660 ca        1 S41     -0.101000
      5 C5         -0.6810   -0.0210    2.6960 ca        1 S41     -0.134600
      6 C6         -0.6920   -0.6880    1.4660 ca        1 S41     -0.037000
      7 O7          0.5910   -1.0220   -0.6340 os        1 S41     -0.179200
      8 C8          1.8080   -0.4890   -1.1070 cc        1 S41      0.096900
      9 C9          2.3800    0.3610   -0.1820 cd        1 S41     -0.209200
     10 C10         2.2020   -0.9270   -2.4480 c3        1 S41     -0.056900
     11 C11        -1.8710   -0.1930    3.5920 c         1 S41      0.681700
     12 O12         2.3750    2.0420    2.5210 os        1 S41     -0.188200
     13 O13        -3.0220   -0.1090    3.1480 o         1 S41     -0.512100
     14 N14        -1.5730   -0.4800    4.9230 n         1 S41     -0.561400
     15 C15         3.5430    1.6310    3.0880 ca        1 S41     -0.012500
     16 C16         3.9050    0.2950    3.3980 ca        1 S41      0.381700
     17 N17         5.0870   -0.0070    3.9570 nb        1 S41     -0.618500
     18 C18         5.9240    1.0460    4.2150 ca        1 S41      0.487500
     19 N19         5.6620    2.3720    3.9670 nb        1 S41     -0.618500
     20 C20         4.4850    2.6600    3.4060 ca        1 S41      0.381700
     21 C21         7.2600    0.6850    4.7780 c         1 S41      0.483600
     22 N22         7.9390    1.7720    5.6040 n4        1 S41     -0.584200
     23 O23         7.8570   -0.3690    4.6540 o         1 S41     -0.380100
     24 C24         9.4110    1.5780    5.6460 c3        1 S41      0.086100
     25 C25         7.3620    1.7810    6.9740 c3        1 S41      0.086100
     26 C26        -2.5090   -0.5370    5.9730 ca        1 S41      0.400900
     27 N27        -3.6230    0.2600    5.9620 nb        1 S41     -0.626000
     28 C28        -4.4500    0.1390    7.0110 ca        1 S41      0.310900
     29 C29        -4.2110   -0.7460    8.1030 ca        1 S41      0.285300
     30 N30        -3.0960   -1.5190    8.1230 nb        1 S41     -0.611000
     31 C31        -2.2610   -1.4220    7.0790 ca        1 S41      0.254900
     32 C32        -5.1970   -0.8220    9.2160 c3        1 S41     -0.145400
     33 H4          0.3310    1.3800    4.0220 ha        1 S41      0.161000
     34 H6         -1.5340   -1.3320    1.1690 ha        1 S41      0.189000
     35 H9          3.3040    0.9210   -0.2890 ha        1 S41      0.172000
     36 H10         1.4860   -0.5210   -3.2090 hc        1 S41      0.077367
     37 H10A        3.2310   -0.5600   -2.6820 hc        1 S41      0.077367
     38 H10B        2.1830   -2.0450   -2.5150 hc        1 S41      0.077367
     39 HN14       -0.6460   -0.7470    5.1580 hn        1 S41      0.321500
     40 H16         3.2270   -0.5540    3.1800 h4        1 S41      0.076600
     41 H20         4.2600    3.7230    3.1920 h4        1 S41      0.076600
     42 H24         9.8720    2.3990    6.2560 hx        1 S41      0.107867
     43 H24A        9.6490    0.5810    6.1060 hx        1 S41      0.107867
     44 H24B        9.8140    1.6050    4.5980 hx        1 S41      0.107867
     45 H25         7.8420    2.6000    7.5730 hx        1 S41      0.107867
     46 H25A        6.2550    1.9620    6.9080 hx        1 S41      0.107867
     47 H25B        7.5560    0.7910    7.4670 hx        1 S41      0.107867
     48 H28        -5.3500    0.7810    6.9860 h4        1 S41      0.044100
     49 H31        -1.3670   -2.0670    7.1160 h4        1 S41      0.028100
     50 H32        -5.7230   -1.8110    9.1950 hc        1 S41      0.061033
     51 H32A       -5.9570   -0.0100    9.1130 hc        1 S41      0.061033
     52 H32B       -4.6910   -0.7180   10.2080 hc        1 S41      0.061033
     53 H221        7.7470    2.6840    5.1630 hn        1 S41      0.476800
@<TRIPOS>BOND
     1    1    2 ar
     2    1    6 ar
     3    1    7 1
     4    2    3 ar
     5    2    9 1
     6    3    4 ar
     7    3   12 1
     8    4    5 ar
     9    4   33 1
    10    5    6 ar
    11    5   11 1
    12    6   34 1
    13    7    8 1
    14    8    9 2
    15    8   10 1
    16    9   35 1
    17   10   36 1
    18   10   37 1
    19   10   38 1
    20   11   13 2
    21   11   14 1
    22   12   15 1
    23   14   26 1
    24   14   39 1
    25   15   16 ar
    26   15   20 ar
    27   16   17 ar
    28   16   40 1
    29   17   18 ar
    30   18   19 ar
    31   18   21 1
    32   19   20 ar
    33   20   41 1
    34   21   22 1
    35   21   23 2
    36   22   24 1
    37   22   25 1
    38   22   53 1
    39   24   42 1
    40   24   43 1
    41   24   44 1
    42   25   45 1
    43   25   46 1
    44   25   47 1
    45   26   27 ar
    46   26   31 ar
    47   27   28 ar
    48   28   29 ar
    49   28   48 1
    50   29   30 ar
    51   29   32 1
    52   30   31 ar
    53   31   49 1
    54   32   50 1
    55   32   51 1
    56   32   52 1
@<TRIPOS>SUBSTRUCTURE
     1 S41         1 TEMP              0 ****  ****    0 ROOT
