@<TRIPOS>MOLECULE
molecule
   58    60     1     0     0
SMALL
bcc


@<TRIPOS>ATOM
      1 N01          0.0000     0.0000     0.0000 nb         1 S42      -0.783000
      2 C02          1.3230     0.0000     0.0000 ca         1 S42       0.711200
      3 N02          2.0130     0.0010    -1.2070 nv         1 S42      -1.016500
      4 C03          2.0320     0.0000     1.1980 ca         1 S42      -0.315300
      5 C04          1.3330    -0.0000     2.3910 ca         1 S42      -0.000300
      6 C05         -0.0550    -0.0010     2.3470 ca         1 S42      -0.302300
      7 C06         -0.6930    -0.0010     1.1230 ca         1 S42       0.463600
      8 C07          2.0630    -0.0020     3.7100 c3         1 S42      -0.052800
      9 C08         -2.1990    -0.0010     1.0690 c3         1 S42      -0.115700
     10 C09         -2.6790     1.1810     0.2240 c3         1 S42      -0.037100
     11 C11         -4.1850     1.1800     0.1700 ca         1 S42      -0.066300
     12 C12         -4.9110     1.8670     1.1250 ca         1 S42      -0.102000
     13 C13         -6.2920     1.8660     1.0760 ca         1 S42      -0.115000
     14 C14         -6.9470     1.1800     0.0700 ca         1 S42      -0.117000
     15 C15         -6.2210     0.4950    -0.8860 ca         1 S42      -0.164300
     16 C16         -4.8400     0.4980    -0.8380 ca         1 S42      -0.136000
     17 N21         -9.1380    -1.5570    -3.4210 nb         1 S42      -0.841000
     18 C22         -9.6990    -2.2450    -4.4030 ca         1 S42       0.715200
     19 N22        -10.4070    -1.5770    -5.3940 nv         1 S42      -1.011500
     20 C23         -9.5860    -3.6310    -4.4510 ca         1 S42      -0.304300
     21 C24         -8.8770    -4.2840    -3.4580 ca         1 S42       0.014700
     22 C25         -8.3050    -3.5250    -2.4460 ca         1 S42      -0.286300
     23 C26         -8.4560    -2.1530    -2.4590 ca         1 S42       0.436600
     24 C28         -7.8370    -1.3250    -1.3630 c3         1 S42      -0.107700
     25 C29         -6.9350    -0.2540    -1.9820 c3         1 S42       0.034600
     26 C30         -7.7870     0.7230    -2.7940 c3         1 S42      -0.031200
     27 N31         -6.9120     1.6790    -3.4840 nz         1 S42      -0.789600
     28 HN02         1.5300    -0.2060    -2.0590 hn         1 S42       0.439800
     29 HN0A         2.9830     0.2440    -1.2290 hn         1 S42       0.439800
     30 H03          3.1150     0.0000     1.1950 ha         1 S42       0.142000
     31 H05         -0.6310    -0.0020     3.2650 ha         1 S42       0.138000
     32 H07          2.6880    -0.8830     3.7760 hc         1 S42       0.051700
     33 H07A         2.6800     0.8860     3.7820 hc         1 S42       0.051700
     34 H07B         1.3440    -0.0080     4.5200 hc         1 S42       0.051700
     35 H08         -2.5960     0.0880     2.0720 hc         1 S42       0.057700
     36 H08A        -2.5440    -0.9260     0.6240 hc         1 S42       0.057700
     37 H09         -2.3340     2.1060     0.6690 hc         1 S42       0.065700
     38 H09A        -2.2810     1.0930    -0.7790 hc         1 S42       0.065700
     39 H12         -4.3980     2.4040     1.9130 ha         1 S42       0.152000
     40 H13         -6.8610     2.4040     1.8250 ha         1 S42       0.150000
     41 H14         -8.0300     1.1780     0.0320 ha         1 S42       0.142000
     42 H16         -4.2710    -0.0390    -1.5880 ha         1 S42       0.133000
     43 HN22       -10.5280    -0.5850    -5.3410 hn         1 S42       0.443300
     44 HN2A       -10.8020    -2.0890    -6.1590 hn         1 S42       0.443300
     45 H23        -10.0460    -4.1920    -5.2560 ha         1 S42       0.153000
     46 H25         -7.7440    -4.0050    -1.6530 ha         1 S42       0.150000
     47 H27         -7.7470    -6.0540    -3.1120 hc         1 S42       0.059367
     48 H27A        -9.4860    -6.2260    -2.8350 hc         1 S42       0.059367
     49 H27B        -8.8570    -6.1470    -4.4860 hc         1 S42       0.059367
     50 H28         -7.2470    -1.9640    -0.7160 hc         1 S42       0.090700
     51 H28A        -8.6190    -0.8480    -0.7840 hc         1 S42       0.090700
     52 H29         -6.2070    -0.7250    -2.6310 hc         1 S42       0.047700
     53 H30         -7.1150     0.0380    -3.2960 hx         1 S42       0.152700
     54 H30A        -8.7510     0.4490    -3.2080 hx         1 S42       0.152700
     55 HN31        -6.0970     1.2050    -3.8190 hn         1 S42       0.445133
     56 HN3A        -6.6400     2.4020    -2.8470 hn         1 S42       0.445133
     57 H313        -7.4030     2.0840    -4.2570 hn         1 S42       0.445133
     58 C27         -8.7320    -5.7830    -3.4740 c3         1 S42      -0.056800
@<TRIPOS>BOND
     1     1     2 ar
     2     1     7 ar
     3     2     3 1
     4     2     4 ar
     5     4     5 ar
     6     5     6 ar
     7     5     8 1
     8     6     7 ar
     9     7     9 1
    10     9    10 1
    11    10    11 1
    12    11    12 ar
    13    11    16 ar
    14    12    13 ar
    15    13    14 ar
    16    14    15 ar
    17    15    16 ar
    18    15    25 1
    19    17    18 ar
    20    17    23 ar
    21    18    19 1
    22    18    20 ar
    23    20    21 ar
    24    21    22 ar
    25    21    58 1
    26    22    23 ar
    27    23    24 1
    28    24    25 1
    29    25    26 1
    30    26    27 1
    31     3    28 1
    32     3    29 1
    33     4    30 1
    34     6    31 1
    35     8    32 1
    36     8    33 1
    37     8    34 1
    38     9    35 1
    39     9    36 1
    40    10    37 1
    41    10    38 1
    42    12    39 1
    43    13    40 1
    44    14    41 1
    45    16    42 1
    46    19    43 1
    47    19    44 1
    48    20    45 1
    49    22    46 1
    50    58    47 1
    51    58    48 1
    52    58    49 1
    53    24    50 1
    54    24    51 1
    55    25    52 1
    56    26    53 1
    57    26    54 1
    58    27    55 1
    59    27    56 1
    60    57    27 1
@<TRIPOS>SUBSTRUCTURE
     1 S42         1 TEMP              0 ****  ****    0 ROOT
