@<TRIPOS>MOLECULE
S42
   58    60     1     0     0
SMALL
bcc


@<TRIPOS>ATOM
      1 N01          0.0000     0.0000     0.0000 nb         1 S42      -0.668000
      2 C02          1.3230     0.0000     0.0000 ca         1 S42       0.516200
      3 N02          2.0130     0.0010    -1.2070 nv         1 S42      -0.536500
      4 C03          2.0320     0.0000     1.1980 ca         1 S42      -0.297300
      5 C04          1.3330    -0.0000     2.3910 ca         1 S42       0.001700
      6 C05         -0.0550    -0.0010     2.3470 ca         1 S42      -0.280300
      7 C06         -0.6930    -0.0010     1.1230 ca         1 S42       0.413600
      8 C07          2.0630    -0.0020     3.7100 c3         1 S42       0.058200
      9 C08         -2.1990    -0.0010     1.0690 c3         1 S42      -0.060700
     10 C09         -2.6790     1.1810     0.2240 c3         1 S42       0.024900
     11 C11         -4.1850     1.1800     0.1700 ca         1 S42      -0.069300
     12 C12         -4.9110     1.8670     1.1250 ca         1 S42      -0.068000
     13 C13         -6.2920     1.8660     1.0760 ca         1 S42      -0.084000
     14 C14         -6.9470     1.1800     0.0700 ca         1 S42      -0.086000
     15 C15         -6.2210     0.4950    -0.8860 ca         1 S42      -0.195300
     16 C16         -4.8400     0.4980    -0.8380 ca         1 S42      -0.105000
     17 N21         -9.1380    -1.5570    -3.4210 nb         1 S42      -0.727000
     18 C22         -9.6990    -2.2450    -4.4030 ca         1 S42       0.518200
     19 N22        -10.4070    -1.5770    -5.3940 nv         1 S42      -0.522500
     20 C23         -9.5860    -3.6310    -4.4510 ca         1 S42      -0.286300
     21 C24         -8.8770    -4.2840    -3.4580 ca         1 S42       0.021700
     22 C25         -8.3050    -3.5250    -2.4460 ca         1 S42      -0.263300
     23 C26         -8.4560    -2.1530    -2.4590 ca         1 S42       0.390600
     24 C28         -7.8370    -1.3250    -1.3630 c3         1 S42      -0.059700
     25 C29         -6.9350    -0.2540    -1.9820 c3         1 S42       0.097600
     26 C30         -7.7870     0.7230    -2.7940 c3         1 S42      -0.204200
     27 N31         -6.9120     1.6790    -3.4840 nz         1 S42       0.132400
     28 HN02         1.5300    -0.2060    -2.0590 hn         1 S42       0.270800
     29 HN0A         2.9830     0.2440    -1.2290 hn         1 S42       0.270800
     30 H03          3.1150     0.0000     1.1950 ha         1 S42       0.124000
     31 H05         -0.6310    -0.0020     3.2650 ha         1 S42       0.121000
     32 H07          2.6880    -0.8830     3.7760 hc         1 S42       0.014033
     33 H07A         2.6800     0.8860     3.7820 hc         1 S42       0.014033
     34 H07B         1.3440    -0.0080     4.5200 hc         1 S42       0.014033
     35 H08         -2.5960     0.0880     2.0720 hc         1 S42       0.023700
     36 H08A        -2.5440    -0.9260     0.6240 hc         1 S42       0.023700
     37 H09         -2.3340     2.1060     0.6690 hc         1 S42       0.031700
     38 H09A        -2.2810     1.0930    -0.7790 hc         1 S42       0.031700
     39 H12         -4.3980     2.4040     1.9130 ha         1 S42       0.123000
     40 H13         -6.8610     2.4040     1.8250 ha         1 S42       0.119000
     41 H14         -8.0300     1.1780     0.0320 ha         1 S42       0.118000
     42 H16         -4.2710    -0.0390    -1.5880 ha         1 S42       0.111000
     43 HN22       -10.5280    -0.5850    -5.3410 hn         1 S42       0.273300
     44 HN2A       -10.8020    -2.0890    -6.1590 hn         1 S42       0.273300
     45 H23        -10.0460    -4.1920    -5.2560 ha         1 S42       0.133000
     46 H25         -7.7440    -4.0050    -1.6530 ha         1 S42       0.131000
     47 H27         -7.7470    -6.0540    -3.1120 hc         1 S42       0.021033
     48 H27A        -9.4860    -6.2260    -2.8350 hc         1 S42       0.021033
     49 H27B        -8.8570    -6.1470    -4.4860 hc         1 S42       0.021033
     50 H28         -7.2470    -1.9640    -0.7160 hc         1 S42       0.054200
     51 H28A        -8.6190    -0.8480    -0.7840 hc         1 S42       0.054200
     52 H29         -6.2070    -0.7250    -2.6310 hc         1 S42       0.024700
     53 H30         -7.1150     0.0380    -3.2960 hx         1 S42       0.122700
     54 H30A        -8.7510     0.4490    -3.2080 hx         1 S42       0.122700
     55 HN31        -6.0970     1.2050    -3.8190 hn         1 S42       0.207800
     56 HN3A        -6.6400     2.4020    -2.8470 hn         1 S42       0.207800
     57 H313        -7.4030     2.0840    -4.2570 hn         1 S42       0.207800
     58 C27         -8.7320    -5.7830    -3.4740 c3         1 S42       0.054200
@<TRIPOS>BOND
     1     1     2 ar  
     2     1     7 ar  
     3     2     3 1   
     4     2     4 ar  
     5     3    28 1   
     6     3    29 1   
     7     4     5 ar  
     8     4    30 1   
     9     5     6 ar  
    10     5     8 1   
    11     6     7 ar  
    12     6    31 1   
    13     7     9 1   
    14     8    32 1   
    15     8    33 1   
    16     8    34 1   
    17     9    10 1   
    18     9    35 1   
    19     9    36 1   
    20    10    11 1   
    21    10    37 1   
    22    10    38 1   
    23    11    12 ar  
    24    11    16 ar  
    25    12    13 ar  
    26    12    39 1   
    27    13    14 ar  
    28    13    40 1   
    29    14    15 ar  
    30    14    41 1   
    31    15    16 ar  
    32    15    25 1   
    33    16    42 1   
    34    17    18 ar  
    35    17    23 ar  
    36    18    19 1   
    37    18    20 ar  
    38    19    43 1   
    39    19    44 1   
    40    20    21 ar  
    41    20    45 1   
    42    21    22 ar  
    43    21    58 1   
    44    22    23 ar  
    45    22    46 1   
    46    23    24 1   
    47    24    25 1   
    48    24    50 1   
    49    24    51 1   
    50    25    26 1   
    51    25    52 1   
    52    26    27 1   
    53    26    53 1   
    54    26    54 1   
    55    27    55 1   
    56    27    56 1   
    57    27    57 1   
    58    47    58 1   
    59    48    58 1   
    60    49    58 1   
@<TRIPOS>SUBSTRUCTURE
     1 S42         1 TEMP              0 ****  ****    0 ROOT
