@<TRIPOS>MOLECULE
S44
   77    81     1     0     0
SMALL
bcc


@<TRIPOS>ATOM
      1 O33          0.0000     0.0000     0.0000 o          1 S44      -0.900800
      2 O34          1.9470     0.0060    -1.0450 o          1 S44      -0.900800
      3 C1           1.3430     0.0000     0.0000 c          1 S44       0.986600
      4 C2           2.0960     0.0000     1.3050 c3         1 S44      -0.153700
      5 C3           1.7260    -1.2490     2.1090 c3         1 S44      -0.012400
      6 C4           2.3740    -1.1770     3.4920 c3         1 S44      -0.007100
      7 C5           3.6000    -0.0010     1.0270 c3         1 S44       0.038900
      8 C6           3.9940     1.3100     0.3950 ca         1 S44      -0.085300
      9 C7           4.2210     2.4180     1.1900 ca         1 S44      -0.062000
     10 C8           4.5830     3.6210     0.6140 ca         1 S44      -0.194300
     11 C9           4.7180     3.7150    -0.7640 ca         1 S44       0.138100
     12 C10          4.4910     2.6010    -1.5600 ca         1 S44      -0.225000
     13 C11          4.1350     1.4000    -0.9780 ca         1 S44       0.008000
     14 O37          5.0730     4.8970    -1.3330 os         1 S44      -0.316900
     15 C30          5.1940     4.9200    -2.7570 c3         1 S44       0.200400
     16 C31          5.5980     6.3250    -3.2110 c3         1 S44      -0.036400
     17 C32          5.7280     6.3500    -4.7360 c3         1 S44       0.010900
     18 C12          4.8290     4.8280     1.4800 c3         1 S44       0.127300
     19 N35          3.6460     5.6940     1.4590 ns         1 S44      -0.173900
     20 C13          3.6380     6.8400     2.1680 c          1 S44       0.586700
     21 O36          4.6110     7.1560     2.8230 o          1 S44      -0.677100
     22 C14          2.4440     7.7130     2.1470 ca         1 S44      -0.151600
     23 C15          2.4330     8.9010     2.8790 ca         1 S44      -0.056500
     24 C16          1.3160     9.7110     2.8550 ca         1 S44      -0.124000
     25 C17          0.2100     9.3470     2.1080 ca         1 S44      -0.066300
     26 C18          0.2160     8.1710     1.3790 ca         1 S44      -0.124000
     27 C19          1.3280     7.3550     1.3900 ca         1 S44      -0.056500
     28 C20         -1.0060    10.2380     2.0860 c3         1 S44       0.000300
     29 C21         -2.0800     9.6130     1.1920 c3         1 S44      -0.016733
     30 C22         -3.3140    10.5170     1.1710 c3         1 S44      -0.040367
     31 C23         -2.9310    11.8920     0.6230 c3         1 S44      -0.016400
     32 C24         -1.8580    12.5160     1.5170 c3         1 S44      -0.040367
     33 C25         -0.6220    11.6140     1.5390 c3         1 S44      -0.016733
     34 C26         -1.5520    10.3880     3.5080 c3         1 S44      -0.016733
     35 C27         -2.7860    11.2920     3.4870 c3         1 S44      -0.040367
     36 C28         -2.4040    12.6680     2.9390 c3         1 S44      -0.016400
     37 C29         -3.8600    10.6680     2.5930 c3         1 S44      -0.016400
     38 H2           1.8350     0.8850     1.8730 hc         1 S44       0.025700
     39 H3           2.0810    -2.1310     1.5890 hc         1 S44       0.021200
     40 H3A          0.6490    -1.3030     2.2170 hc         1 S44       0.021200
     41 H4           3.3800    -1.5760     3.4410 hc         1 S44      -0.010967
     42 H4A          2.4120    -0.1450     3.8200 hc         1 S44      -0.010967
     43 H4B          1.7900    -1.7580     4.1950 hc         1 S44      -0.010967
     44 H5           3.8420    -0.8140     0.3530 hc         1 S44       0.010700
     45 H5A          4.1400    -0.1300     1.9570 hc         1 S44       0.010700
     46 H7           4.1150     2.3440     2.2650 ha         1 S44       0.103000
     47 H10          4.5980     2.6720    -2.6350 ha         1 S44       0.112000
     48 H11          3.9570     0.5300    -1.5980 ha         1 S44       0.150000
     49 H30          5.9500     4.2090    -3.0670 h1         1 S44       0.003700
     50 H30A         4.2440     4.6550    -3.2050 h1         1 S44       0.003700
     51 H31          4.8420     7.0360    -2.9020 hc         1 S44       0.018700
     52 H31A         6.5490     6.5900    -2.7640 hc         1 S44       0.018700
     53 H32          4.7780     6.0840    -5.1840 hc         1 S44      -0.000967
     54 H32A         6.4850     5.6390    -5.0460 hc         1 S44      -0.000967
     55 H32B         6.0130     7.3440    -5.0580 hc         1 S44      -0.000967
     56 H12          5.0250     4.5090     2.4970 h1         1 S44       0.023200
     57 H12A         5.6840     5.3760     1.1030 h1         1 S44       0.023200
     58 HN35         2.8320     5.4160     0.9480 hn         1 S44       0.189500
     59 H15          3.2980     9.1870     3.4650 ha         1 S44       0.119500
     60 H16          1.3050    10.6330     3.4230 ha         1 S44       0.114500
     61 H18         -0.6520     7.8940     0.7940 ha         1 S44       0.114500
     62 H19          1.3310     6.4340     0.8180 ha         1 S44       0.119500
     63 H21         -2.3520     8.6390     1.5800 hc         1 S44       0.023033
     64 H21A        -1.6940     9.5060     0.1860 hc         1 S44       0.023033
     65 H22         -4.0740    10.0750     0.5380 hc         1 S44       0.020367
     66 H23         -3.8050    12.5310     0.6080 hc         1 S44       0.013033
     67 H23A        -2.5450    11.7850    -0.3840 hc         1 S44       0.013033
     68 H24         -1.5860    13.4910     1.1290 hc         1 S44       0.020367
     69 H25         -0.2360    11.5070     0.5320 hc         1 S44       0.023033
     70 H25A         0.1370    12.0560     2.1720 hc         1 S44       0.023033
     71 H26         -1.8240     9.4140     3.8960 hc         1 S44       0.023033
     72 H26A        -0.7920    10.8300     4.1420 hc         1 S44       0.023033
     73 H27         -3.1730    11.3990     4.4930 hc         1 S44       0.020367
     74 H28         -3.2780    13.3070     2.9230 hc         1 S44       0.013033
     75 H28A        -1.6440    13.1110     3.5720 hc         1 S44       0.013033
     76 H29         -4.7340    11.3070     2.5780 hc         1 S44       0.013033
     77 H29A        -4.1310     9.6940     2.9810 hc         1 S44       0.013033
@<TRIPOS>BOND
     1     1     3 1   
     2     2     3 1   
     3     3     4 1   
     4     4     5 1   
     5     4     7 1   
     6     4    38 1   
     7     5     6 1   
     8     5    39 1   
     9     5    40 1   
    10     6    41 1   
    11     6    42 1   
    12     6    43 1   
    13     7     8 1   
    14     7    44 1   
    15     7    45 1   
    16     8     9 ar  
    17     8    13 ar  
    18     9    10 ar  
    19     9    46 1   
    20    10    11 ar  
    21    10    18 1   
    22    11    12 ar  
    23    11    14 1   
    24    12    13 ar  
    25    12    47 1   
    26    13    48 1   
    27    14    15 1   
    28    15    16 1   
    29    15    49 1   
    30    15    50 1   
    31    16    17 1   
    32    16    51 1   
    33    16    52 1   
    34    17    53 1   
    35    17    54 1   
    36    17    55 1   
    37    18    19 1   
    38    18    56 1   
    39    18    57 1   
    40    19    20 1   
    41    19    58 1   
    42    20    21 2   
    43    20    22 1   
    44    22    23 ar  
    45    22    27 ar  
    46    23    24 ar  
    47    23    59 1   
    48    24    25 ar  
    49    24    60 1   
    50    25    26 ar  
    51    25    28 1   
    52    26    27 ar  
    53    26    61 1   
    54    27    62 1   
    55    28    29 1   
    56    28    33 1   
    57    28    34 1   
    58    29    30 1   
    59    29    63 1   
    60    29    64 1   
    61    30    31 1   
    62    30    37 1   
    63    30    65 1   
    64    31    32 1   
    65    31    66 1   
    66    31    67 1   
    67    32    33 1   
    68    32    36 1   
    69    32    68 1   
    70    33    69 1   
    71    33    70 1   
    72    34    35 1   
    73    34    71 1   
    74    34    72 1   
    75    35    36 1   
    76    35    37 1   
    77    35    73 1   
    78    36    74 1   
    79    36    75 1   
    80    37    76 1   
    81    37    77 1   
@<TRIPOS>SUBSTRUCTURE
     1 S44         1 TEMP              0 ****  ****    0 ROOT
