@<TRIPOS>MOLECULE
S45
   32    34     1     0     0
SMALL
bcc


@<TRIPOS>ATOM
      1 CL1         0.0120   -0.0260    0.0970 cl        1 S45     -0.087400
      2 C7          1.7110   -0.0120    0.0610 ca        1 S45      0.034400
      3 C10         2.4300   -0.0600    1.2590 ca        1 S45     -0.136500
      4 C6          3.8230   -0.0480    1.2280 ca        1 S45     -0.082000
      5 C4          4.5030    0.0110    0.0030 ca        1 S45     -0.131500
      6 C5          3.7720    0.0590   -1.1930 ca        1 S45     -0.082000
      7 C9          2.3800    0.0480   -1.1650 ca        1 S45     -0.136500
      8 C1          5.9630    0.0240   -0.0230 cc        1 S45      0.587500
      9 N1          6.7300   -0.0190   -1.2300 nc        1 S45     -0.680000
     10 C2          7.9920    0.0100   -0.8140 cd        1 S45      0.509700
     11 O1          8.0210    0.0690    0.6150 os        1 S45     -0.141100
     12 N2          6.7880    0.0770    1.0600 nd        1 S45     -0.369300
     13 C3          9.2930   -0.0160   -1.5290 c3        1 S45     -0.094000
     14 C11        10.0850   -1.2620   -1.1470 c3        1 S45     -0.078400
     15 C13        11.4490   -1.2320   -1.8020 c3        1 S45     -0.077400
     16 C12        12.1890    0.0650   -1.4780 c3        1 S45      0.158800
     17 N3         11.4090    1.2500   -1.7820 n3        1 S45     -0.819200
     18 C8         10.0910    1.2550   -1.1820 c3        1 S45      0.164800
     19 H10         1.9030   -0.1070    2.2240 ha        1 S45      0.152000
     20 H6          4.3800   -0.0870    2.1780 ha        1 S45      0.158000
     21 H5          4.2890    0.1070   -2.1650 ha        1 S45      0.158000
     22 H9          1.8120    0.0860   -2.1070 ha        1 S45      0.152000
     23 H3          9.0900   -0.0330   -2.6390 hc        1 S45      0.100700
     24 H11         9.5260   -2.1780   -1.4710 hc        1 S45      0.056200
     25 H11A       10.1950   -1.3040   -0.0320 hc        1 S45      0.056200
     26 H13        12.0630   -2.0950   -1.4360 hc        1 S45      0.053200
     27 H13A       11.3380   -1.3360   -2.9130 hc        1 S45      0.053200
     28 H12        12.4990    0.0310   -0.3910 h1        1 S45      0.033200
     29 H12A       13.1270    0.1170   -2.0990 h1        1 S45      0.033200
     30 HN3        11.9100    2.0730   -1.5050 hn        1 S45      0.370800
     31 H8          9.5400    2.1520   -1.5830 h1        1 S45      0.044200
     32 H8A        10.1270    1.3440   -0.0560 h1        1 S45      0.044200
@<TRIPOS>BOND
     1    1    2 1
     2    2    3 ar
     3    2    7 ar
     4    3    4 ar
     5    3   19 1
     6    4    5 ar
     7    4   20 1
     8    5    6 ar
     9    5    8 1
    10    6    7 ar
    11    6   21 1
    12    7   22 1
    13    8    9 1
    14    8   12 2
    15    9   10 2
    16   10   11 1
    17   10   13 1
    18   11   12 1
    19   13   14 1
    20   13   18 1
    21   13   23 1
    22   14   15 1
    23   14   24 1
    24   14   25 1
    25   15   16 1
    26   15   26 1
    27   15   27 1
    28   16   17 1
    29   16   28 1
    30   16   29 1
    31   17   18 1
    32   17   30 1
    33   18   31 1
    34   18   32 1
@<TRIPOS>SUBSTRUCTURE
     1 S45         1 TEMP              0 ****  ****    0 ROOT
