@<TRIPOS>MOLECULE
S46
   32    33     1     0     0
SMALL
bcc


@<TRIPOS>ATOM
      1 C01          0.0000     0.0000     0.0000 c3         1 S46       0.037500
      2 C02          1.5320     0.0000     0.0000 c3         1 S46       0.138800
      3 N03          2.0190     0.0000     1.3860 n3         1 S46      -0.546600
      4 C04          1.6110    -1.2210     2.0940 c3         1 S46       0.138800
      5 C05          0.0820    -1.2710     2.1800 c3         1 S46       0.037500
      6 N06         -0.4710    -1.1270     0.8200 n          1 S46      -0.151800
      7 C07          3.4770     0.1730     1.4320 c3         1 S46       0.189100
      8 C08         -1.3790    -2.0020     0.3460 c          1 S46       0.615700
      9 O09         -1.6730    -2.9850     0.9990 o          1 S46      -0.649100
     10 C10         -2.0150    -1.7680    -0.9650 ca         1 S46      -0.169600
     11 C11         -2.2720    -2.8430    -1.8200 ca         1 S46      -0.047000
     12 C12         -2.3680    -0.4730    -1.3520 ca         1 S46      -0.047000
     13 C13         -2.9610    -0.2590    -2.5760 ca         1 S46      -0.149500
     14 C14         -3.2100    -1.3300    -3.4260 ca         1 S46       0.145100
     15 C15         -2.8660    -2.6210    -3.0430 ca         1 S46      -0.149500
     16 O16         -3.7960    -1.1160    -4.6310 oh         1 S46      -0.502100
     17 H1          -0.3620    -0.1130    -1.0150 h1         1 S46       0.039700
     18 H2          -0.3630     0.9310     0.4200 h1         1 S46       0.039700
     19 H3           1.8930     0.8860    -0.5080 h1         1 S46       0.016700
     20 H4           1.8930    -0.8860    -0.5080 h1         1 S46       0.016700
     21 H6           1.9700    -2.0880     1.5530 h1         1 S46       0.016700
     22 H7           2.0280    -1.2140     3.0940 h1         1 S46       0.016700
     23 H8          -0.2740    -0.4600     2.8040 h1         1 S46       0.039700
     24 H9          -0.2270    -2.2210     2.5980 h1         1 S46       0.039700
     25 H10          3.9560    -0.6590     0.9290 h1         1 S46       0.001700
     26 H11          3.7470     1.0980     0.9360 h1         1 S46       0.001700
     27 H12          3.8040     0.2080     2.4640 h1         1 S46       0.001700
     28 H13         -2.0040    -3.8500    -1.5220 ha         1 S46       0.119500
     29 H14         -2.1740     0.3620    -0.6900 ha         1 S46       0.119500
     30 H15         -3.2320     0.7450    -2.8770 ha         1 S46       0.117500
     31 H16         -3.0640    -3.4540    -3.7070 ha         1 S46       0.117500
     32 H17         -4.7320    -1.1710    -4.5400 ho         1 S46       0.407000
@<TRIPOS>BOND
     1     1     2 1   
     2     1     6 1   
     3     1    17 1   
     4     1    18 1   
     5     2     3 1   
     6     2    19 1   
     7     2    20 1   
     8     3     4 1   
     9     3     7 1   
    10     4     5 1   
    11     4    21 1   
    12     4    22 1   
    13     5     6 1   
    14     5    23 1   
    15     5    24 1   
    16     6     8 1   
    17     7    25 1   
    18     7    26 1   
    19     7    27 1   
    20     8     9 2   
    21     8    10 1   
    22    10    11 ar  
    23    10    12 ar  
    24    11    15 ar  
    25    11    28 1   
    26    12    13 ar  
    27    12    29 1   
    28    13    14 ar  
    29    13    30 1   
    30    14    15 ar  
    31    14    16 1   
    32    15    31 1   
    33    16    32 1   
@<TRIPOS>SUBSTRUCTURE
     1 S46         1 TEMP              0 ****  ****    0 ROOT
