@<TRIPOS>MOLECULE
molecule
   32    33     1     0     0
SMALL
bcc


@<TRIPOS>ATOM
      1 C01          0.0000     0.0000     0.0000 c3         1 S46       0.103000
      2 C02          1.5320     0.0000     0.0000 c3         1 S46       0.144800
      3 N03          2.0190     0.0000     1.3860 n3         1 S46      -0.733600
      4 C04          1.6110    -1.2210     2.0940 c3         1 S46       0.144800
      5 C05          0.0820    -1.2710     2.1800 c3         1 S46       0.103000
      6 N06         -0.4710    -1.1270     0.8200 n          1 S46      -0.489800
      7 C07          3.4770     0.1730     1.4320 c3         1 S46       0.153100
      8 C08         -1.3790    -2.0020     0.3460 c          1 S46       0.678700
      9 O09         -1.6730    -2.9850     0.9990 o          1 S46      -0.608100
     10 C10         -2.0150    -1.7680    -0.9650 ca         1 S46      -0.153600
     11 C11         -2.2720    -2.8430    -1.8200 ca         1 S46      -0.079500
     12 C12         -2.3680    -0.4730    -1.3520 ca         1 S46      -0.079500
     13 C13         -2.9610    -0.2590    -2.5760 ca         1 S46      -0.165000
     14 C14         -3.2100    -1.3300    -3.4260 ca         1 S46       0.125100
     15 C15         -2.8660    -2.6210    -3.0430 ca         1 S46      -0.165000
     16 O16         -3.7960    -1.1160    -4.6310 oh         1 S46      -0.523100
     17 H1          -0.3620    -0.1130    -1.0150 h1         1 S46       0.064950
     18 H2          -0.3630     0.9310     0.4200 h1         1 S46       0.064950
     19 H3           1.8930     0.8860    -0.5080 h1         1 S46       0.043200
     20 H4           1.8930    -0.8860    -0.5080 h1         1 S46       0.043200
     21 H6           1.9700    -2.0880     1.5530 h1         1 S46       0.043200
     22 H7           2.0280    -1.2140     3.0940 h1         1 S46       0.043200
     23 H8          -0.2740    -0.4600     2.8040 h1         1 S46       0.064950
     24 H9          -0.2270    -2.2210     2.5980 h1         1 S46       0.064950
     25 H10          3.9560    -0.6590     0.9290 h1         1 S46       0.033367
     26 H11          3.7470     1.0980     0.9360 h1         1 S46       0.033367
     27 H12          3.8040     0.2080     2.4640 h1         1 S46       0.033367
     28 H13         -2.0040    -3.8500    -1.5220 ha         1 S46       0.148500
     29 H14         -2.1740     0.3620    -0.6900 ha         1 S46       0.148500
     30 H15         -3.2320     0.7450    -2.8770 ha         1 S46       0.145000
     31 H16         -3.0640    -3.4540    -3.7070 ha         1 S46       0.145000
     32 H17         -4.7320    -1.1710    -4.5400 ho         1 S46       0.424000
@<TRIPOS>BOND
     1    16    14 1
     2    14    13 ar
     3    14    15 ar
     4    13    12 ar
     5    15    11 ar
     6    12    10 ar
     7    11    10 ar
     8    10     8 1
     9     4     5 1
    10     4     3 1
    11     5     6 1
    12     8     6 1
    13     8     9 2
    14     3     7 1
    15     3     2 1
    16     6     1 1
    17     2     1 1
    18     1    17 1
    19     1    18 1
    20     2    19 1
    21     2    20 1
    22     4    21 1
    23     4    22 1
    24     5    23 1
    25     5    24 1
    26     7    25 1
    27     7    26 1
    28     7    27 1
    29    11    28 1
    30    12    29 1
    31    13    30 1
    32    15    31 1
    33    16    32 1
@<TRIPOS>SUBSTRUCTURE
     1 S46         1 TEMP              0 ****  ****    0 ROOT
