@<TRIPOS>MOLECULE
molecule
   58    62     1     0     0
SMALL
bcc


@<TRIPOS>ATOM
      1 C1           0.0000     0.0000     0.0000 c3         1 S47       0.142100
      2 N1           0.7720    -0.5820     2.1940 n7         1 S47      -0.784200
      3 O1          -0.5040    -1.1910    -0.6610 os         1 S47      -0.422900
      4 C2          -1.6870    -1.0870    -1.2860 c          1 S47       0.626100
      5 O2          -2.2810    -0.0340    -1.2830 o          1 S47      -0.530500
      6 O3           2.0470     1.1920    -0.6570 os         1 S47      -0.422900
      7 C4           1.5430     0.0000     0.0000 c3         1 S47       0.142100
      8 O4           3.8250     0.0380    -1.2810 o          1 S47      -0.530500
      9 C5           3.2300     1.0890    -1.2830 c          1 S47       0.626100
     10 C6          -2.2730    -2.2810    -1.9940 c3         1 S47      -0.076100
     11 C7          -0.4020    -0.0000     1.4900 c3         1 S47       0.125300
     12 C13         -3.5950    -1.9000    -2.6100 ca         1 S47      -0.068800
     13 C14         -4.7550    -2.1380    -1.9390 ca         1 S47      -0.104000
     14 C15         -5.9880    -1.7940    -2.4930 ca         1 S47      -0.126500
     15 C16         -6.0660    -1.2110    -3.7200 ca         1 S47      -0.106500
     16 C17         -4.8890    -0.9500    -4.4430 ca         1 S47      -0.034000
     17 C18         -3.6360    -1.2940    -3.8770 ca         1 S47      -0.014000
     18 C19         -2.4590    -1.0290    -4.5970 ca         1 S47      -0.120500
     19 C20          6.2990     2.1510    -1.9370 ca         1 S47      -0.104000
     20 C21         -3.7690    -0.1120    -6.3830 ca         1 S47      -0.127500
     21 C22         -4.9310    -0.3490    -5.7120 ca         1 S47      -0.112000
     22 C23         -2.5360    -0.4410    -5.8220 ca         1 S47      -0.119500
     23 C24          7.5310     1.8070    -2.4900 ca         1 S47      -0.126500
     24 C25          7.6100     1.2220    -3.7160 ca         1 S47      -0.106500
     25 C26          6.4340     0.9600    -4.4370 ca         1 S47      -0.034000
     26 C27          5.1810     1.3080    -3.8750 ca         1 S47      -0.014000
     27 C28          6.4750     0.3560    -5.7070 ca         1 S47      -0.112000
     28 C29          5.3140     0.1160    -6.3760 ca         1 S47      -0.127500
     29 C30          4.0830     0.4600    -5.8220 ca         1 S47      -0.119500
     30 C31          4.0040     1.0450    -4.5960 ca         1 S47      -0.120500
     31 C32          1.9440     0.0000     1.4910 c3         1 S47       0.125300
     32 C33          5.1390     1.9070    -2.6040 ca         1 S47      -0.068800
     33 C34          3.8170     2.2860    -1.9880 c3         1 S47      -0.076100
     34 H1          -0.3730     0.8930    -0.4870 h1         1 S47       0.099200
     35 HN1          0.7720    -0.2810     3.1480 hn         1 S47       0.352800
     36 H4           1.9170    -0.8920    -0.4880 h1         1 S47       0.099200
     37 H6          -1.5940    -2.6100    -2.7710 hc         1 S47       0.080950
     38 H6A         -2.4240    -3.0840    -1.2830 hc         1 S47       0.080950
     39 H7          -1.2770    -0.6190     1.6440 h1         1 S47       0.057200
     40 H7A         -0.5810     1.0120     1.8320 h1         1 S47       0.057200
     41 H14         -4.7200    -2.6020    -0.9600 ha         1 S47       0.128500
     42 H15         -6.8960    -1.9940    -1.9380 ha         1 S47       0.130000
     43 H16         -7.0310    -0.9490    -4.1380 ha         1 S47       0.133000
     44 H19         -1.4940    -1.2790    -4.1730 ha         1 S47       0.130000
     45 H21         -3.8040     0.3560    -7.3600 ha         1 S47       0.128500
     46 H22         -5.8820    -0.0880    -6.1600 ha         1 S47       0.133000
     47 H23         -1.6270    -0.2420    -6.3770 ha         1 S47       0.127500
     48 H24          8.4400     2.0130    -1.9370 ha         1 S47       0.130000
     49 H25          8.5750     0.9610    -4.1330 ha         1 S47       0.133000
     50 H28          7.4260     0.0830    -6.1490 ha         1 S47       0.133000
     51 H29          5.3490    -0.3490    -7.3540 ha         1 S47       0.128500
     52 H30          3.1740     0.2570    -6.3760 ha         1 S47       0.127500
     53 H31          3.0390     1.3060    -4.1790 ha         1 S47       0.130000
     54 H32          2.8200    -0.6180     1.6450 h1         1 S47       0.057200
     55 H32A         2.1220     1.0120     1.8330 h1         1 S47       0.057200
     56 H34          3.9680     3.0870    -1.2740 hc         1 S47       0.080950
     57 H34A         3.1380     2.6170    -2.7640 hc         1 S47       0.080950
     58 H20          6.2640     2.6150    -0.9590 ha         1 S47       0.128500
@<TRIPOS>BOND
     1     3     1 1
     2    11     1 1
     3     1     7 1
     4     1    34 1
     5    11     2 1
     6     2    31 1
     7     2    35 1
     8     4     3 1
     9    10     4 1
    10     4     5 2
    11     7     6 1
    12     6     9 1
    13    31     7 1
    14     7    36 1
    15     9     8 2
    16     9    33 1
    17    10    12 1
    18    10    37 1
    19    10    38 1
    20    11    39 1
    21    11    40 1
    22    12    13 ar
    23    12    17 ar
    24    13    14 ar
    25    13    41 1
    26    14    15 ar
    27    14    42 1
    28    16    15 ar
    29    15    43 1
    30    17    16 ar
    31    16    21 ar
    32    18    17 ar
    33    18    22 ar
    34    18    44 1
    35    32    19 ar
    36    23    19 ar
    37    19    58 1
    38    22    20 ar
    39    20    21 ar
    40    20    45 1
    41    21    46 1
    42    22    47 1
    43    24    23 ar
    44    23    48 1
    45    25    24 ar
    46    24    49 1
    47    27    25 ar
    48    25    26 ar
    49    30    26 ar
    50    26    32 ar
    51    28    27 ar
    52    27    50 1
    53    28    29 ar
    54    28    51 1
    55    29    30 ar
    56    29    52 1
    57    30    53 1
    58    31    54 1
    59    31    55 1
    60    32    33 1
    61    33    56 1
    62    33    57 1
@<TRIPOS>SUBSTRUCTURE
     1 S47         1 TEMP              0 ****  ****    0 ROOT
