@<TRIPOS>MOLECULE
S4H
    6     5     1     0     0
SMALL
bcc


@<TRIPOS>ATOM
      1 S1         -0.0550    0.0540   -0.5770 sh        1 S4H     -0.169200
      2 S2          1.7890   -0.3490    0.0100 s4        1 S4H     -0.124700
      3 S3          2.7220    0.4460    1.3240 s         1 S4H     -0.099500
      4 S4          2.3790   -1.8220   -1.1700 sh        1 S4H     -0.169200
      5 HS1        -0.4130    1.0480    0.2400 hs        1 S4H      0.280800
      6 HS4         3.6210   -2.0620   -0.7420 hs        1 S4H      0.280800
@<TRIPOS>BOND
     1    1    2 1   
     2    1    5 1   
     3    2    3 2   
     4    2    4 1   
     5    4    6 1   
@<TRIPOS>SUBSTRUCTURE
     1 S4H         1 TEMP              0 ****  ****    0 ROOT
