@<TRIPOS>MOLECULE
molecule
    6     5     1     0     0
SMALL
bcc


@<TRIPOS>ATOM
      1 S1           0.0000     0.0000     0.0000 sh         1 S4H      -0.303200
      2 S2           2.0500     0.0000     0.0000 s4         1 S4H      -0.073700
      3 S3           2.4560     0.0000     1.7570 s          1 S4H       0.107500
      4 S4           2.5100    -1.9110    -0.5810 sh         1 S4H      -0.303200
      5 HS1         -0.4430     1.1060    -0.5860 hs         1 S4H       0.285800
      6 HS4          3.4750    -1.8760    -1.4930 hs         1 S4H       0.285800
@<TRIPOS>BOND
     1     1     2 1
     2     1     5 1
     3     4     2 1
     4     2     3 2
     5     4     6 1
@<TRIPOS>SUBSTRUCTURE
     1 S4H         1 TEMP              0 ****  ****    0 ROOT
