@<TRIPOS>MOLECULE
molecule
   49    51     1     0     0
SMALL
bcc


@<TRIPOS>ATOM
      1 CA           0.0000     0.0000     0.0000 c3         1 S4M       0.068800
      2 N            1.4380     0.0000     0.0000 nz         1 S4M      -0.796600
      3 CB          -0.5840     0.0000     1.4090 c3         1 S4M      -0.064400
      4 CG          -2.1060     0.0230     1.4070 c3         1 S4M      -0.028600
      5 SD          -2.7490     0.0490     3.0530 s6         1 S4M      -0.559200
      6 CE          -4.5100     0.0260     2.8960 c3         1 S4M      -0.033300
      7 C5'         -2.3250     1.6260     3.7100 c3         1 S4M      -0.017600
      8 C4'         -2.8960     1.8110     5.1040 c3         1 S4M       0.149100
      9 O4'         -2.3430     0.8270     5.9920 os         1 S4M      -0.419600
     10 C1'         -2.2700     1.4000     7.3160 c3         1 S4M       0.244800
     11 C2'         -2.6940     2.8650     7.2100 c3         1 S4M       0.088100
     12 O2'         -4.0510     2.9940     7.6300 oh         1 S4M      -0.567800
     13 C3'         -2.5480     3.1530     5.7270 c3         1 S4M       0.112100
     14 O3'         -3.3920     4.1870     5.2690 oh         1 S4M      -0.566800
     15 N9          -0.9200     1.2160     7.8520 na         1 S4M      -0.273000
     16 C8           0.2450     1.2280     7.1310 cc         1 S4M       0.407700
     17 N7           1.3030     1.0350     7.8900 nd         1 S4M      -0.543100
     18 C5           0.8030     0.8900     9.1590 ca         1 S4M      -0.162200
     19 C6           1.4150     0.6640    10.3880 ca         1 S4M       0.764200
     20 N6           2.8110     0.5400    10.4830 nv         1 S4M      -1.078500
     21 C4          -0.5780     0.9990     9.1580 ca         1 S4M       0.428800
     22 N3          -1.4000     0.9110    10.2150 nb         1 S4M      -0.694000
     23 C2          -0.6950     0.6920    11.3450 ca         1 S4M       0.662900
     24 N1           0.6450     0.5640    11.5000 nb         1 S4M      -0.721000
     25 HA1         -0.3500     0.8810    -0.5240 hx         1 S4M       0.109700
     26 HA2         -0.3500    -0.8810    -0.5240 hx         1 S4M       0.109700
     27 HN1          1.7720    -0.0580    -0.9420 hn         1 S4M       0.455467
     28 HN2          1.7720     0.8450     0.4200 hn         1 S4M       0.455467
     29 HB1         -0.2210     0.8730     1.9380 hc         1 S4M       0.055700
     30 HB2         -0.2480    -0.8900     1.9270 hc         1 S4M       0.055700
     31 HG1         -2.4740    -0.8590     0.8960 h1         1 S4M       0.077200
     32 HG2         -2.4470     0.9060     0.8790 h1         1 S4M       0.077200
     33 HSD         -2.2900    -0.9520     3.7940 hs         1 S4M       0.180800
     34 HE1         -4.7790    -0.2960     1.8980 h1         1 S4M       0.081367
     35 HE2         -4.9280    -0.6620     3.6220 h1         1 S4M       0.081367
     36 HE3         -4.9020     1.0200     3.0740 h1         1 S4M       0.081367
     37 H5'1        -1.2470     1.7140     3.7550 h1         1 S4M       0.075200
     38 H5'2        -2.7180     2.3990     3.0600 h1         1 S4M       0.075200
     39 H4'         -3.9740     1.7000     5.0740 h1         1 S4M       0.087700
     40 H1'         -2.9750     0.8830     7.9550 h2         1 S4M       0.124700
     41 H2'         -2.0370     3.5000     7.7930 h1         1 S4M       0.069700
     42 HO2'        -4.1070     3.6370     8.3170 ho         1 S4M       0.423000
     43 H3'         -1.5160     3.3950     5.5070 h1         1 S4M       0.039700
     44 HO3'        -2.8900     4.9790     5.1640 ho         1 S4M       0.412000
     45 H8           0.2900     1.3820     6.0590 h5         1 S4M       0.060800
     46 HN61         3.2390    -0.3630    10.4170 hn         1 S4M       0.447800
     47 HN62         3.3740     1.3460    10.6710 hn         1 S4M       0.447800
     48 H2          -1.2800     0.6070    12.2520 h5         1 S4M       0.058100
     49 HN3          1.7720    -0.7870     0.5200 hn         1 S4M       0.455467
@<TRIPOS>BOND
     1     1     2 1
     2     1     3 1
     3     1    25 1
     4     1    26 1
     5     2    27 1
     6     2    28 1
     7     3     4 1
     8     3    29 1
     9     3    30 1
    10     4     5 1
    11     4    31 1
    12     4    32 1
    13     5     6 1
    14     5     7 1
    15     5    33 1
    16     6    34 1
    17     6    35 1
    18     6    36 1
    19     7     8 1
    20     7    37 1
    21     7    38 1
    22     8    13 1
    23     8     9 1
    24     8    39 1
    25     9    10 1
    26    10    11 1
    27    10    15 1
    28    10    40 1
    29    11    12 1
    30    11    13 1
    31    11    41 1
    32    12    42 1
    33    13    14 1
    34    13    43 1
    35    14    44 1
    36    15    21 1
    37    15    16 1
    38    16    17 2
    39    16    45 1
    40    17    18 1
    41    18    21 ar
    42    18    19 ar
    43    19    24 ar
    44    19    20 1
    45    20    46 1
    46    20    47 1
    47    21    22 ar
    48    22    23 ar
    49    23    24 ar
    50    23    48 1
    51    49     2 1
@<TRIPOS>SUBSTRUCTURE
     1 S4M         1 TEMP              0 ****  ****    0 ROOT
