@<TRIPOS>MOLECULE
molecule
    6     5     1     0     0
SMALL
bcc


@<TRIPOS>ATOM
      1 S4           0.0000     0.0000     0.0000 sh         1 S4P      -0.367300
      2 S3           2.0500     0.0000     0.0000 ss         1 S4P       0.100000
      3 S2           2.5110     0.0000     1.9990 ss         1 S4P       0.100000
      4 S1           2.4450    -1.9910     2.4860 sh         1 S4P      -0.367300
      5 H1          -0.4430     0.0000    -1.2520 hs         1 S4P       0.267300
      6 H2           2.7280    -2.1410     3.7740 hs         1 S4P       0.267300
@<TRIPOS>BOND
     1     4     3 1
     2     1     2 1
     3     2     3 1
     4     1     5 1
     5     4     6 1
@<TRIPOS>SUBSTRUCTURE
     1 S4P         1 TEMP              0 ****  ****    0 ROOT
