@<TRIPOS>MOLECULE
molecule
   55    59     1     0     0
SMALL
bcc


@<TRIPOS>ATOM
      1 C1           0.0000     0.0000     0.0000 ca         1 S51      -0.123000
      2 C2           1.3840     0.0000     0.0000 ca         1 S51      -0.121500
      3 C3           2.0750     0.0000     1.1950 ca         1 S51      -0.125500
      4 C4           1.3820     0.0000     2.3970 ca         1 S51      -0.005200
      5 C5          -0.0070     0.0010     2.3950 ca         1 S51      -0.125500
      6 C6          -0.6940    -0.0000     1.1960 ca         1 S51      -0.121500
      7 N12          2.0810    -0.0000     3.6110 na         1 S51       0.011500
      8 C13          2.8900     1.0270     4.0560 ca         1 S51      -0.034200
      9 C14          3.4040     0.6460     5.3060 ca         1 S51      -0.071800
     10 C15          2.8450    -0.6900     5.5840 cc         1 S51      -0.214400
     11 C16          2.0550    -1.0090     4.5190 cd         1 S51       0.005700
     12 C17          3.2450     2.2590     3.5190 ca         1 S51      -0.134000
     13 C18          4.0930     3.0940     4.2140 ca         1 S51      -0.113000
     14 C19          4.6010     2.7170     5.4490 ca         1 S51      -0.150000
     15 C20          4.2610     1.4990     5.9970 ca         1 S51      -0.085000
     16 C26          2.1500    -3.3460     3.7550 ca         1 S51      -0.090300
     17 C29          2.8040    -4.2590     4.5620 ca         1 S51      -0.109000
     18 C30          3.6040    -5.2330     3.9950 ca         1 S51      -0.127500
     19 C31          3.7510    -5.2940     2.6220 ca         1 S51      -0.125000
     20 C32          3.0960    -4.3810     1.8150 ca         1 S51      -0.127500
     21 C33          2.2970    -3.4060     2.3820 ca         1 S51      -0.109000
     22 C39          3.0880    -1.5130     6.7760 c          1 S51       0.707300
     23 N40          2.3120    -1.3640     7.8680 n          1 S51      -0.491800
     24 O41          3.9910    -2.3300     6.7780 o          1 S51      -0.603100
     25 C42          2.4660    -2.2510     9.0310 c3         1 S51       0.107500
     26 C43          2.6090    -1.3860    10.2870 c3         1 S51       0.139800
     27 N44          1.4790    -0.4510    10.3650 n7         1 S51      -0.821200
     28 C45          1.4760     0.4790     9.2280 c3         1 S51       0.139800
     29 C46          1.2920    -0.3060     7.9300 c3         1 S51       0.107500
     30 C60          1.2720    -2.2880     4.3730 c3         1 S51       0.023100
     31 H1          -0.5410    -0.0000    -0.9390 ha         1 S51       0.135000
     32 H2           1.9250    -0.0000    -0.9390 ha         1 S51       0.138500
     33 H3           3.1590    -0.0000     1.1940 ha         1 S51       0.146500
     34 H5          -0.5520     0.0010     3.3310 ha         1 S51       0.146500
     35 H6          -1.7770     0.0000     1.1930 ha         1 S51       0.138500
     36 H17          2.8540     2.5640     2.5560 ha         1 S51       0.132000
     37 H18          4.3660     4.0530     3.7920 ha         1 S51       0.131000
     38 H19          5.2670     3.3820     5.9840 ha         1 S51       0.131000
     39 H20          4.6590     1.2060     6.9610 ha         1 S51       0.136000
     40 H29          2.6880    -4.2110     5.6380 ha         1 S51       0.135500
     41 H30          4.1170    -5.9480     4.6270 ha         1 S51       0.129000
     42 H31          4.3780    -6.0570     2.1780 ha         1 S51       0.127000
     43 H32          3.2120    -4.4290     0.7380 ha         1 S51       0.129000
     44 H33          1.7850    -2.6910     1.7510 ha         1 S51       0.135500
     45 H42          1.5920    -2.8840     9.1230 h1         1 S51       0.062950
     46 H42A         3.3530    -2.8610     8.9070 h1         1 S51       0.062950
     47 H43          2.6110    -2.0210    11.1640 h1         1 S51       0.039950
     48 H43A         3.5350    -0.8270    10.2360 h1         1 S51       0.039950
     49 HN44         1.5320     0.0670    11.2190 hn         1 S51       0.355800
     50 H45          0.6620     1.1830     9.3410 h1         1 S51       0.039950
     51 H45A         2.4200     1.0110     9.1960 h1         1 S51       0.039950
     52 H46          1.4090     0.3600     7.0840 h1         1 S51       0.062950
     53 H46A         0.3050    -0.7530     7.9140 h1         1 S51       0.062950
     54 H60          0.9380    -2.6210     5.3480 hc         1 S51       0.065200
     55 H60A         0.4130    -2.1150     3.7360 hc         1 S51       0.065200
@<TRIPOS>BOND
     1     1     2 ar
     2     1     6 ar
     3     2     3 ar
     4     3     4 ar
     5     4     5 ar
     6     4     7 1
     7     5     6 ar
     8     7     8 1
     9     7    11 1
    10     8     9 ar
    11     8    12 ar
    12     9    10 1
    13     9    15 ar
    14    10    11 2
    15    10    22 1
    16    11    30 1
    17    12    13 ar
    18    13    14 ar
    19    14    15 ar
    20    16    17 ar
    21    16    21 ar
    22    16    30 1
    23    17    18 ar
    24    18    19 ar
    25    19    20 ar
    26    20    21 ar
    27    22    23 1
    28    22    24 2
    29    23    25 1
    30    23    29 1
    31    25    26 1
    32    26    27 1
    33    27    28 1
    34    28    29 1
    35     1    31 1
    36     2    32 1
    37     3    33 1
    38     5    34 1
    39     6    35 1
    40    12    36 1
    41    13    37 1
    42    14    38 1
    43    15    39 1
    44    17    40 1
    45    18    41 1
    46    19    42 1
    47    20    43 1
    48    21    44 1
    49    25    45 1
    50    25    46 1
    51    26    47 1
    52    26    48 1
    53    27    49 1
    54    28    50 1
    55    28    51 1
    56    29    52 1
    57    29    53 1
    58    30    54 1
    59    30    55 1
@<TRIPOS>SUBSTRUCTURE
     1 S51         1 TEMP              0 ****  ****    0 ROOT
