@<TRIPOS>MOLECULE
S51
   55    59     1     0     0
SMALL
bcc


@<TRIPOS>ATOM
      1 C1           0.0000     0.0000     0.0000 ca         1 S51      -0.085000
      2 C2           1.3840     0.0000     0.0000 ca         1 S51      -0.094500
      3 C3           2.0750     0.0000     1.1950 ca         1 S51      -0.086500
      4 C4           1.3820     0.0000     2.3970 ca         1 S51      -0.183200
      5 C5          -0.0070     0.0010     2.3950 ca         1 S51      -0.086500
      6 C6          -0.6940    -0.0000     1.1960 ca         1 S51      -0.094500
      7 N12          2.0810    -0.0000     3.6110 na         1 S51       0.539500
      8 C13          2.8900     1.0270     4.0560 ca         1 S51      -0.226200
      9 C14          3.4040     0.6460     5.3060 ca         1 S51      -0.065800
     10 C15          2.8450    -0.6900     5.5840 cc         1 S51      -0.216400
     11 C16          2.0550    -1.0090     4.5190 cd         1 S51      -0.198300
     12 C17          3.2450     2.2590     3.5190 ca         1 S51      -0.095000
     13 C18          4.0930     3.0940     4.2140 ca         1 S51      -0.091000
     14 C19          4.6010     2.7170     5.4490 ca         1 S51      -0.122000
     15 C20          4.2610     1.4990     5.9970 ca         1 S51      -0.053000
     16 C26          2.1500    -3.3460     3.7550 ca         1 S51      -0.097300
     17 C29          2.8040    -4.2590     4.5620 ca         1 S51      -0.090500
     18 C30          3.6040    -5.2330     3.9950 ca         1 S51      -0.098500
     19 C31          3.7510    -5.2940     2.6220 ca         1 S51      -0.101000
     20 C32          3.0960    -4.3810     1.8150 ca         1 S51      -0.098500
     21 C33          2.2970    -3.4060     2.3820 ca         1 S51      -0.090500
     22 C39          3.0880    -1.5130     6.7760 c          1 S51       0.651300
     23 N40          2.3120    -1.3640     7.8680 n          1 S51      -0.157800
     24 O41          3.9910    -2.3300     6.7780 o          1 S51      -0.647100
     25 C42          2.4660    -2.2510     9.0310 c3         1 S51       0.047000
     26 C43          2.6090    -1.3860    10.2870 c3         1 S51       0.129800
     27 N44          1.4790    -0.4510    10.3650 n7         1 S51      -0.581200
     28 C45          1.4760     0.4790     9.2280 c3         1 S51       0.129800
     29 C46          1.2920    -0.3060     7.9300 c3         1 S51       0.047000
     30 C60          1.2720    -2.2880     4.3730 c3         1 S51       0.109100
     31 H1          -0.5410    -0.0000    -0.9390 ha         1 S51       0.107000
     32 H2           1.9250    -0.0000    -0.9390 ha         1 S51       0.109500
     33 H3           3.1590    -0.0000     1.1940 ha         1 S51       0.118500
     34 H5          -0.5520     0.0010     3.3310 ha         1 S51       0.118500
     35 H6          -1.7770     0.0000     1.1930 ha         1 S51       0.109500
     36 H17          2.8540     2.5640     2.5560 ha         1 S51       0.105000
     37 H18          4.3660     4.0530     3.7920 ha         1 S51       0.101000
     38 H19          5.2670     3.3820     5.9840 ha         1 S51       0.103000
     39 H20          4.6590     1.2060     6.9610 ha         1 S51       0.105000
     40 H29          2.6880    -4.2110     5.6380 ha         1 S51       0.111500
     41 H30          4.1170    -5.9480     4.6270 ha         1 S51       0.101500
     42 H31          4.3780    -6.0570     2.1780 ha         1 S51       0.100000
     43 H32          3.2120    -4.4290     0.7380 ha         1 S51       0.101500
     44 H33          1.7850    -2.6910     1.7510 ha         1 S51       0.111500
     45 H42          1.5920    -2.8840     9.1230 h1         1 S51       0.035700
     46 H42A         3.3530    -2.8610     8.9070 h1         1 S51       0.035700
     47 H43          2.6110    -2.0210    11.1640 h1         1 S51       0.012700
     48 H43A         3.5350    -0.8270    10.2360 h1         1 S51       0.012700
     49 HN44         1.5320     0.0670    11.2190 hn         1 S51       0.254800
     50 H45          0.6620     1.1830     9.3410 h1         1 S51       0.012700
     51 H45A         2.4200     1.0110     9.1960 h1         1 S51       0.012700
     52 H46          1.4090     0.3600     7.0840 h1         1 S51       0.035700
     53 H46A         0.3050    -0.7530     7.9140 h1         1 S51       0.035700
     54 H60          0.9380    -2.6210     5.3480 hc         1 S51       0.027200
     55 H60A         0.4130    -2.1150     3.7360 hc         1 S51       0.027200
@<TRIPOS>BOND
     1     1     2 ar  
     2     1     6 ar  
     3     1    31 1   
     4     2     3 ar  
     5     2    32 1   
     6     3     4 ar  
     7     3    33 1   
     8     4     5 ar  
     9     4     7 1   
    10     5     6 ar  
    11     5    34 1   
    12     6    35 1   
    13     7     8 1   
    14     7    11 1   
    15     8     9 ar  
    16     8    12 ar  
    17     9    10 1   
    18     9    15 ar  
    19    10    11 2   
    20    10    22 1   
    21    11    30 1   
    22    12    13 ar  
    23    12    36 1   
    24    13    14 ar  
    25    13    37 1   
    26    14    15 ar  
    27    14    38 1   
    28    15    39 1   
    29    16    17 ar  
    30    16    21 ar  
    31    16    30 1   
    32    17    18 ar  
    33    17    40 1   
    34    18    19 ar  
    35    18    41 1   
    36    19    20 ar  
    37    19    42 1   
    38    20    21 ar  
    39    20    43 1   
    40    21    44 1   
    41    22    23 1   
    42    22    24 2   
    43    23    25 1   
    44    23    29 1   
    45    25    26 1   
    46    25    45 1   
    47    25    46 1   
    48    26    27 1   
    49    26    47 1   
    50    26    48 1   
    51    27    28 1   
    52    27    49 1   
    53    28    29 1   
    54    28    50 1   
    55    28    51 1   
    56    29    52 1   
    57    29    53 1   
    58    30    54 1   
    59    30    55 1   
@<TRIPOS>SUBSTRUCTURE
     1 S51         1 TEMP              0 ****  ****    0 ROOT
