@<TRIPOS>MOLECULE
S52
   53    57     1     0     0
SMALL
bcc


@<TRIPOS>ATOM
      1 C1           0.0000     0.0000     0.0000 ca         1 S52      -0.081000
      2 O1           3.1050    -2.1720     3.3860 os         1 S52      -0.192200
      3 C2           1.3830     0.0000     0.0000 ca         1 S52      -0.095000
      4 C3           2.0760     0.0000     1.1940 ca         1 S52      -0.077000
      5 C4           1.3820    -0.0000     2.3970 ca         1 S52      -0.190200
      6 C5          -0.0070    -0.0010     2.3940 ca         1 S52      -0.077000
      7 C6          -0.6940    -0.0010     1.1960 ca         1 S52      -0.095000
      8 N12          2.0810    -0.0020     3.6100 na         1 S52       0.515500
      9 C13          2.0600     1.0280     4.5370 ca         1 S52      -0.222200
     10 C14          2.8800     0.6550     5.6130 ca         1 S52      -0.061800
     11 C15          3.4080    -0.6820     5.2820 cc         1 S52      -0.224400
     12 C16          2.8730    -1.0180     4.0500 cd         1 S52      -0.023000
     13 C17          1.4140     2.2590     4.5660 ca         1 S52      -0.094000
     14 C18          1.5830     3.0990     5.6460 ca         1 S52      -0.088000
     15 C19          2.3930     2.7300     6.7090 ca         1 S52      -0.118000
     16 C20          3.0420     1.5130     6.6980 ca         1 S52      -0.049000
     17 C26          2.2680    -3.2180     3.6160 ca         1 S52       0.131100
     18 C29          2.5260    -4.4530     3.0390 ca         1 S52      -0.153500
     19 C30          1.6740    -5.5160     3.2740 ca         1 S52      -0.062000
     20 C31          0.5650    -5.3480     4.0830 ca         1 S52      -0.134000
     21 C32          0.3060    -4.1180     4.6590 ca         1 S52      -0.062000
     22 C33          1.1570    -3.0550     4.4320 ca         1 S52      -0.153500
     23 C39          4.3130    -1.4930     6.0960 c          1 S52       0.653300
     24 N40          5.6450    -1.3020     6.0160 n          1 S52      -0.149800
     25 O41          3.8640    -2.3400     6.8460 o          1 S52      -0.645100
     26 C42          6.5660    -2.0280     6.9040 c3         1 S52       0.049000
     27 C43          7.6530    -2.6850     6.0470 c3         1 S52       0.128300
     28 N44          8.2830    -1.6680     5.1950 n7         1 S52      -0.580200
     29 C45          7.3160    -1.0880     4.2530 c3         1 S52       0.128300
     30 C46          6.2160    -0.3690     5.0330 c3         1 S52       0.049000
     31 H1          -0.5410    -0.0000    -0.9390 ha         1 S52       0.106000
     32 H2           1.9240     0.0010    -0.9390 ha         1 S52       0.109000
     33 H3           3.1590     0.0000     1.1930 ha         1 S52       0.116500
     34 H5          -0.5510    -0.0020     3.3310 ha         1 S52       0.116500
     35 H6          -1.7770    -0.0020     1.1940 ha         1 S52       0.109000
     36 H17          0.7790     2.5570     3.7410 ha         1 S52       0.107000
     37 H18          1.0770     4.0570     5.6640 ha         1 S52       0.103000
     38 H19          2.5170     3.3990     7.5520 ha         1 S52       0.105000
     39 H20          3.6740     1.2260     7.5290 ha         1 S52       0.109000
     40 H29          3.3940    -4.5850     2.4050 ha         1 S52       0.118500
     41 H30          1.8750    -6.4800     2.8230 ha         1 S52       0.102000
     42 H31         -0.1030    -6.1810     4.2650 ha         1 S52       0.104000
     43 H32         -0.5620    -3.9890     5.2940 ha         1 S52       0.102000
     44 H33          0.9540    -2.0910     4.8830 ha         1 S52       0.118500
     45 H42          7.0220    -1.3340     7.5990 h1         1 S52       0.035700
     46 H42A         6.0210    -2.7910     7.4470 h1         1 S52       0.035700
     47 H43          8.4020    -3.1290     6.6930 h1         1 S52       0.012950
     48 H43A         7.2060    -3.4510     5.4240 h1         1 S52       0.012950
     49 HN44         9.0390    -2.0810     4.6850 hn         1 S52       0.253800
     50 H45          7.8220    -0.3800     3.6080 h1         1 S52       0.012950
     51 H45A         6.8760    -1.8780     3.6570 h1         1 S52       0.012950
     52 H46          5.4420    -0.0430     4.3490 h1         1 S52       0.035700
     53 H46A         6.6380     0.4860     5.5480 h1         1 S52       0.035700
@<TRIPOS>BOND
     1     1     3 ar  
     2     1     7 ar  
     3     1    31 1   
     4     2    12 1   
     5     2    17 1   
     6     3     4 ar  
     7     3    32 1   
     8     4     5 ar  
     9     4    33 1   
    10     5     6 ar  
    11     5     8 1   
    12     6     7 ar  
    13     6    34 1   
    14     7    35 1   
    15     8     9 1   
    16     8    12 1   
    17     9    10 ar  
    18     9    13 ar  
    19    10    11 1   
    20    10    16 ar  
    21    11    12 2   
    22    11    23 1   
    23    13    14 ar  
    24    13    36 1   
    25    14    15 ar  
    26    14    37 1   
    27    15    16 ar  
    28    15    38 1   
    29    16    39 1   
    30    17    18 ar  
    31    17    22 ar  
    32    18    19 ar  
    33    18    40 1   
    34    19    20 ar  
    35    19    41 1   
    36    20    21 ar  
    37    20    42 1   
    38    21    22 ar  
    39    21    43 1   
    40    22    44 1   
    41    23    24 1   
    42    23    25 2   
    43    24    26 1   
    44    24    30 1   
    45    26    27 1   
    46    26    45 1   
    47    26    46 1   
    48    27    28 1   
    49    27    47 1   
    50    27    48 1   
    51    28    29 1   
    52    28    49 1   
    53    29    30 1   
    54    29    50 1   
    55    29    51 1   
    56    30    52 1   
    57    30    53 1   
@<TRIPOS>SUBSTRUCTURE
     1 S52         1 TEMP              0 ****  ****    0 ROOT
