@<TRIPOS>MOLECULE
molecule
   53    57     1     0     0
SMALL
bcc


@<TRIPOS>ATOM
      1 C1           0.0000     0.0000     0.0000 ca         1 S52      -0.119000
      2 O1           3.1050    -2.1720     3.3860 os         1 S52      -0.221200
      3 C2           1.3830     0.0000     0.0000 ca         1 S52      -0.122000
      4 C3           2.0760     0.0000     1.1940 ca         1 S52      -0.115000
      5 C4           1.3820    -0.0000     2.3970 ca         1 S52      -0.015200
      6 C5          -0.0070    -0.0010     2.3940 ca         1 S52      -0.115000
      7 C6          -0.6940    -0.0010     1.1960 ca         1 S52      -0.122000
      8 N12          2.0810    -0.0020     3.6100 na         1 S52      -0.003500
      9 C13          2.0600     1.0280     4.5370 ca         1 S52      -0.028200
     10 C14          2.8800     0.6550     5.6130 ca         1 S52      -0.070800
     11 C15          3.4080    -0.6820     5.2820 cc         1 S52      -0.206400
     12 C16          2.8730    -1.0180     4.0500 cd         1 S52       0.157000
     13 C17          1.4140     2.2590     4.5660 ca         1 S52      -0.134000
     14 C18          1.5830     3.0990     5.6460 ca         1 S52      -0.110000
     15 C19          2.3930     2.7300     6.7090 ca         1 S52      -0.147000
     16 C20          3.0420     1.5130     6.6980 ca         1 S52      -0.080000
     17 C26          2.2680    -3.2180     3.6160 ca         1 S52       0.125100
     18 C29          2.5260    -4.4530     3.0390 ca         1 S52      -0.163500
     19 C30          1.6740    -5.5160     3.2740 ca         1 S52      -0.096000
     20 C31          0.5650    -5.3480     4.0830 ca         1 S52      -0.154000
     21 C32          0.3060    -4.1180     4.6590 ca         1 S52      -0.096000
     22 C33          1.1570    -3.0550     4.4320 ca         1 S52      -0.163500
     23 C39          4.3130    -1.4930     6.0960 c          1 S52       0.711300
     24 N40          5.6450    -1.3020     6.0160 n          1 S52      -0.485800
     25 O41          3.8640    -2.3400     6.8460 o          1 S52      -0.600100
     26 C42          6.5660    -2.0280     6.9040 c3         1 S52       0.110000
     27 C43          7.6530    -2.6850     6.0470 c3         1 S52       0.138300
     28 N44          8.2830    -1.6680     5.1950 n7         1 S52      -0.820200
     29 C45          7.3160    -1.0880     4.2530 c3         1 S52       0.138300
     30 C46          6.2160    -0.3690     5.0330 c3         1 S52       0.110000
     31 H1          -0.5410    -0.0000    -0.9390 ha         1 S52       0.135000
     32 H2           1.9240     0.0010    -0.9390 ha         1 S52       0.138000
     33 H3           3.1590     0.0000     1.1930 ha         1 S52       0.145500
     34 H5          -0.5510    -0.0020     3.3310 ha         1 S52       0.145500
     35 H6          -1.7770    -0.0020     1.1940 ha         1 S52       0.138000
     36 H17          0.7790     2.5570     3.7410 ha         1 S52       0.135000
     37 H18          1.0770     4.0570     5.6640 ha         1 S52       0.133000
     38 H19          2.5170     3.3990     7.5520 ha         1 S52       0.134000
     39 H20          3.6740     1.2260     7.5290 ha         1 S52       0.141000
     40 H29          3.3940    -4.5850     2.4050 ha         1 S52       0.144000
     41 H30          1.8750    -6.4800     2.8230 ha         1 S52       0.134000
     42 H31         -0.1030    -6.1810     4.2650 ha         1 S52       0.131000
     43 H32         -0.5620    -3.9890     5.2940 ha         1 S52       0.134000
     44 H33          0.9540    -2.0910     4.8830 ha         1 S52       0.144000
     45 H42          7.0220    -1.3340     7.5990 h1         1 S52       0.062950
     46 H42A         6.0210    -2.7910     7.4470 h1         1 S52       0.062950
     47 H43          8.4020    -3.1290     6.6930 h1         1 S52       0.040200
     48 H43A         7.2060    -3.4510     5.4240 h1         1 S52       0.040200
     49 HN44         9.0390    -2.0810     4.6850 hn         1 S52       0.354800
     50 H45          7.8220    -0.3800     3.6080 h1         1 S52       0.040200
     51 H45A         6.8760    -1.8780     3.6570 h1         1 S52       0.040200
     52 H46          5.4420    -0.0430     4.3490 h1         1 S52       0.062950
     53 H46A         6.6380     0.4860     5.5480 h1         1 S52       0.062950
@<TRIPOS>BOND
     1     1     3 ar
     2     1     7 ar
     3     2    12 1
     4     2    17 1
     5     3     4 ar
     6     4     5 ar
     7     5     6 ar
     8     5     8 1
     9     6     7 ar
    10     8     9 1
    11     8    12 1
    12     9    10 ar
    13     9    13 ar
    14    10    11 1
    15    10    16 ar
    16    11    12 2
    17    11    23 1
    18    13    14 ar
    19    14    15 ar
    20    15    16 ar
    21    17    18 ar
    22    17    22 ar
    23    18    19 ar
    24    19    20 ar
    25    20    21 ar
    26    21    22 ar
    27    23    24 1
    28    23    25 2
    29    24    26 1
    30    24    30 1
    31    26    27 1
    32    27    28 1
    33    28    29 1
    34    29    30 1
    35     1    31 1
    36     3    32 1
    37     4    33 1
    38     6    34 1
    39     7    35 1
    40    13    36 1
    41    14    37 1
    42    15    38 1
    43    16    39 1
    44    18    40 1
    45    19    41 1
    46    20    42 1
    47    21    43 1
    48    22    44 1
    49    26    45 1
    50    26    46 1
    51    27    47 1
    52    27    48 1
    53    28    49 1
    54    29    50 1
    55    29    51 1
    56    30    52 1
    57    30    53 1
@<TRIPOS>SUBSTRUCTURE
     1 S52         1 TEMP              0 ****  ****    0 ROOT
