@<TRIPOS>MOLECULE
molecule
   68    73     1     0     0
SMALL
bcc


@<TRIPOS>ATOM
      1 N1           0.0000     0.0000     0.0000 nb         1 S53      -0.674000
      2 C2           1.3180     0.0000     0.0000 ca         1 S53       0.446600
      3 C3           2.0190     0.0000     1.1980 ca         1 S53      -0.151500
      4 C4           1.2880    -0.0010     2.4010 ca         1 S53      -0.041800
      5 C5          -0.1040    -0.0010     2.3420 ca         1 S53      -0.207300
      6 C6          -0.7110    -0.0010     1.1150 ca         1 S53       0.400200
      7 N9           3.3630     0.0000     1.5210 na         1 S53       0.006500
      8 C10          3.5270    -0.0010     2.8720 cc         1 S53       0.157000
      9 C11          2.2830    -0.0010     3.4840 cd         1 S53      -0.204400
     10 C12          4.4100     0.0000     0.5890 ca         1 S53      -0.024200
     11 C13          4.7350    -1.1660    -0.0920 ca         1 S53      -0.114000
     12 C14          5.7660    -1.1620    -1.0100 ca         1 S53      -0.123000
     13 C15          6.4760    -0.0000    -1.2510 ca         1 S53      -0.111000
     14 C16          6.1560     1.1620    -0.5740 ca         1 S53      -0.123000
     15 C17          5.1210     1.1670     0.3410 ca         1 S53      -0.114000
     16 C23          2.0680     0.0010    -1.3080 c3         1 S53      -0.094400
     17 C24          1.9680     1.3650    -1.9430 ca         1 S53      -0.077300
     18 C27          2.9620     2.3020    -1.7260 ca         1 S53      -0.120000
     19 C28          2.8700     3.5520    -2.3070 ca         1 S53      -0.130000
     20 C29          1.7870     3.8650    -3.1060 ca         1 S53      -0.129000
     21 C30          0.7940     2.9280    -3.3230 ca         1 S53      -0.130000
     22 C31          0.8880     1.6750    -2.7460 ca         1 S53      -0.120000
     23 O37          4.7150    -0.0020     3.5150 os         1 S53      -0.213200
     24 C38          5.2680    -1.2020     3.8320 ca         1 S53       0.148100
     25 C39          4.6610    -2.3780     3.4170 ca         1 S53      -0.226000
     26 C40          5.2260    -3.5980     3.7400 ca         1 S53       0.165900
     27 C41          6.3960    -3.6450     4.4790 ca         1 S53      -0.189000
     28 C42          7.0020    -2.4740     4.8930 ca         1 S53      -0.076000
     29 C43          6.4440    -1.2520     4.5670 ca         1 S53      -0.112300
     30 C47          7.1100     0.0240     5.0140 c3         1 S53      -0.038800
     31 F51          4.6350    -4.7450     3.3370 f          1 S53      -0.135900
     32 C52          2.0130    -0.0010     4.9220 c          1 S53       0.708300
     33 N53          1.9730     1.1620     5.6010 n          1 S53      -0.483800
     34 O54          1.8240    -1.0530     5.5060 o          1 S53      -0.598100
     35 C55          1.7500     1.1810     7.0550 c3         1 S53       0.110000
     36 C56          2.8450     2.0340     7.7040 c3         1 S53       0.138300
     37 N57          2.8760     3.3560     7.0630 n7         1 S53      -0.819200
     38 C58          3.2310     3.2510     5.6410 c3         1 S53       0.138300
     39 C59          2.1580     2.4470     4.9080 c3         1 S53       0.110000
     40 H5          -0.6950    -0.0020     3.2500 ha         1 S53       0.149000
     41 H6          -1.7930    -0.0010     1.0560 h4         1 S53       0.027100
     42 H13          4.1800    -2.0760     0.0960 ha         1 S53       0.149000
     43 H14          6.0200    -2.0710    -1.5420 ha         1 S53       0.141500
     44 H15          7.2860    -0.0010    -1.9700 ha         1 S53       0.139000
     45 H16          6.7130     2.0710    -0.7660 ha         1 S53       0.141500
     46 H17          4.8710     2.0780     0.8720 ha         1 S53       0.149000
     47 H23          1.6370    -0.7390    -1.9710 hc         1 S53       0.068200
     48 H23A         3.1090    -0.2380    -1.1270 hc         1 S53       0.068200
     49 H27          3.8110     2.0570    -1.1000 ha         1 S53       0.137000
     50 H28          3.6480     4.2870    -2.1380 ha         1 S53       0.127500
     51 H29          1.7140     4.8460    -3.5600 ha         1 S53       0.127000
     52 H30         -0.0540     3.1730    -3.9510 ha         1 S53       0.127500
     53 H31          0.1100     0.9410    -2.9160 ha         1 S53       0.137000
     54 H39          3.7450    -2.3400     2.8390 ha         1 S53       0.163000
     55 H41          6.8370    -4.6010     4.7340 ha         1 S53       0.147000
     56 H42          7.9190    -2.5130     5.4680 ha         1 S53       0.143000
     57 H47          6.6780     0.3470     5.9530 hc         1 S53       0.045700
     58 H47A         6.9590     0.7920     4.2640 hc         1 S53       0.045700
     59 H47B         8.1710    -0.1490     5.1450 hc         1 S53       0.045700
     60 H55          0.7790     1.6130     7.2670 h1         1 S53       0.064200
     61 H55A         1.7990     0.1710     7.4430 h1         1 S53       0.064200
     62 H56          2.6320     2.1510     8.7600 h1         1 S53       0.040200
     63 H56A         3.8050     1.5480     7.5750 h1         1 S53       0.040200
     64 HN57         3.5430     3.9380     7.5310 hn         1 S53       0.354800
     65 H58          4.1860     2.7490     5.5440 h1         1 S53       0.040200
     66 H58A         3.2930     4.2430     5.2110 h1         1 S53       0.040200
     67 H59          1.2250     2.9980     4.9130 h1         1 S53       0.064200
     68 H59A         2.4740     2.2660     3.8880 h1         1 S53       0.064200
@<TRIPOS>BOND
     1     1     2 ar
     2     1     6 ar
     3    16     2 1
     4     2     3 ar
     5     3     4 ar
     6     3     7 1
     7     5     4 ar
     8     4     9 1
     9     6     5 ar
    10     5    40 1
    11     6    41 1
    12    10     7 1
    13     7     8 1
    14     9     8 2
    15     8    23 1
    16     9    32 1
    17    11    10 ar
    18    10    15 ar
    19    12    11 ar
    20    11    42 1
    21    12    13 ar
    22    12    43 1
    23    13    14 ar
    24    13    44 1
    25    14    15 ar
    26    14    45 1
    27    15    46 1
    28    17    16 1
    29    16    47 1
    30    16    48 1
    31    22    17 ar
    32    18    17 ar
    33    19    18 ar
    34    18    49 1
    35    20    19 ar
    36    19    50 1
    37    20    21 ar
    38    20    51 1
    39    21    22 ar
    40    21    52 1
    41    22    53 1
    42    23    24 1
    43    24    29 ar
    44    24    25 ar
    45    25    26 ar
    46    25    54 1
    47    26    31 1
    48    26    27 ar
    49    28    27 ar
    50    27    55 1
    51    29    28 ar
    52    28    56 1
    53    30    29 1
    54    30    57 1
    55    30    58 1
    56    30    59 1
    57    34    32 2
    58    32    33 1
    59    33    35 1
    60    33    39 1
    61    35    36 1
    62    35    60 1
    63    35    61 1
    64    36    37 1
    65    36    62 1
    66    36    63 1
    67    38    37 1
    68    37    64 1
    69    39    38 1
    70    38    65 1
    71    38    66 1
    72    39    67 1
    73    39    68 1
@<TRIPOS>SUBSTRUCTURE
     1 S53         1 TEMP              0 ****  ****    0 ROOT
