@<TRIPOS>MOLECULE
S56
   67    70     1     0     0
SMALL
bcc


@<TRIPOS>ATOM
      1 O1           0.0000     0.0000     0.0000 o          1 S56      -0.634100
      2 C21          1.2130     0.0000     0.0000 c          1 S56       0.568100
      3 N4           1.8870     0.0060    -1.1660 ns         1 S56      -0.178900
      4 C22          1.1550     0.0130    -2.4350 c3         1 S56       0.013700
      5 C24          0.7900     1.4520    -2.8070 c3         1 S56      -0.012600
      6 C23          2.0320    -0.5910    -3.5340 c3         1 S56      -0.012600
      7 C19          1.9660     0.0000     1.3050 c3         1 S56       0.005400
      8 C20          2.8130    -1.2030     1.3830 c1         1 S56       0.191700
      9 N3           3.4760    -2.1210     1.4570 n1         1 S56      -0.368800
     10 C18          0.9720    -0.0010     2.4680 c3         1 S56       0.069800
     11 C17          1.7220     0.1220     3.7700 cc         1 S56      -0.269300
     12 N5           2.0350     1.3010     4.3910 na         1 S56       0.326900
     13 C25          1.6880     2.6320     3.8860 c3         1 S56      -0.064700
     14 C26          2.8150     3.1440     2.9870 c3         1 S56       0.193400
     15 O2           2.4780     4.4430     2.4930 os         1 S56      -0.411600
     16 C27          3.4680     5.0160     1.6390 c3         1 S56       0.255700
     17 C2           2.7180     1.0590     5.5530 ca         1 S56       0.302800
     18 N2           3.2370     1.8360     6.5020 nb         1 S56      -0.681000
     19 C1           3.8570     1.3090     7.5360 ca         1 S56       0.683900
     20 N1           4.0000     0.0070     7.6940 nb         1 S56      -0.725000
     21 C4           2.1830    -0.9180     4.5080 cd         1 S56      -0.031400
     22 C3           2.8470    -0.3360     5.6810 ca         1 S56      -0.386400
     23 C            3.5150    -0.8500     6.7990 ca         1 S56       0.593200
     24 N            3.6670    -2.2150     6.9680 nv         1 S56      -0.540500
     25 C5           2.0470    -2.3600     4.1900 ca         1 S56      -0.042800
     26 C16          3.1810    -3.1250     3.9190 ca         1 S56      -0.074500
     27 C15          3.0510    -4.4660     3.6240 ca         1 S56      -0.120500
     28 C8           1.7930    -5.0530     3.5970 ca         1 S56       0.107100
     29 C7           0.6620    -4.2930     3.8640 ca         1 S56      -0.120500
     30 C6           0.7860    -2.9540     4.1660 ca         1 S56      -0.074500
     31 O            1.6680    -6.3750     3.3050 os         1 S56      -0.220200
     32 C9           1.0630    -6.7170     2.1380 ca         1 S56       0.144100
     33 C14          0.7980    -8.0500     1.8560 ca         1 S56      -0.169500
     34 C13          0.1820    -8.3950     0.6690 ca         1 S56      -0.061500
     35 C12         -0.1710    -7.4130    -0.2390 ca         1 S56      -0.142000
     36 C11          0.0900    -6.0840     0.0390 ca         1 S56      -0.061500
     37 C10          0.7020    -5.7330     1.2270 ca         1 S56      -0.169500
     38 H1           2.8870     0.0430    -1.1660 hn         1 S56       0.176500
     39 H2           0.2500    -0.5740    -2.3330 h1         1 S56       0.058700
     40 H3           0.4090     1.4780    -3.8200 hc         1 S56       0.012200
     41 H4           1.6720     2.0770    -2.7370 hc         1 S56       0.012200
     42 H5           0.0320     1.8200    -2.1260 hc         1 S56       0.012200
     43 H6           2.9370    -0.0040    -3.6370 hc         1 S56       0.012200
     44 H7           1.4900    -0.5880    -4.4720 hc         1 S56       0.012200
     45 H8           2.2900    -1.6100    -3.2710 hc         1 S56       0.012200
     46 H9           2.5890     0.8840     1.3630 hc         1 S56       0.056700
     47 H10          0.4100    -0.9270     2.4620 hc         1 S56       0.050700
     48 H11          0.2920     0.8350     2.3630 hc         1 S56       0.050700
     49 H12          0.7690     2.5730     3.3150 h1         1 S56       0.053200
     50 H13          1.5540     3.3110     4.7190 h1         1 S56       0.053200
     51 H14          3.7340     3.2030     3.5580 h1         1 S56      -0.001300
     52 H15          2.9500     2.4650     2.1540 h1         1 S56      -0.001300
     53 H16          3.1920     4.8500     0.6040 h1         1 S56      -0.010300
     54 H17          4.4270     4.5520     1.8350 h1         1 S56      -0.010300
     55 H18          3.5360     6.0800     1.8280 h1         1 S56      -0.010300
     56 H19          4.2670     1.9710     8.2890 h5         1 S56      -0.004900
     57 H20          4.5220    -2.5810     7.3360 hn         1 S56       0.279300
     58 H21          2.9300    -2.8370     6.7010 hn         1 S56       0.279300
     59 H22          4.1620    -2.6680     3.9410 ha         1 S56       0.116500
     60 H23          3.9310    -5.0620     3.4140 ha         1 S56       0.120500
     61 H24         -0.3180    -4.7550     3.8430 ha         1 S56       0.120500
     62 H25         -0.0960    -2.3610     4.3740 ha         1 S56       0.116500
     63 H26          1.0740    -8.8190     2.5670 ha         1 S56       0.122000
     64 H27         -0.0240    -9.4350     0.4480 ha         1 S56       0.101500
     65 H28         -0.6520    -7.6860    -1.1700 ha         1 S56       0.104000
     66 H29         -0.1890    -5.3170    -0.6730 ha         1 S56       0.101500
     67 H30          0.9070    -4.6920     1.4450 ha         1 S56       0.122000
@<TRIPOS>BOND
     1     1     2 2   
     2     2     3 1   
     3     2     7 1   
     4     3     4 1   
     5     3    38 1   
     6     4     5 1   
     7     4     6 1   
     8     4    39 1   
     9     5    40 1   
    10     5    41 1   
    11     5    42 1   
    12     6    43 1   
    13     6    44 1   
    14     6    45 1   
    15     7     8 1   
    16     7    10 1   
    17     7    46 1   
    18     8     9 3   
    19    10    11 1   
    20    10    47 1   
    21    10    48 1   
    22    11    12 1   
    23    11    21 2   
    24    12    13 1   
    25    12    17 1   
    26    13    14 1   
    27    13    49 1   
    28    13    50 1   
    29    14    15 1   
    30    14    51 1   
    31    14    52 1   
    32    15    16 1   
    33    16    53 1   
    34    16    54 1   
    35    16    55 1   
    36    17    18 ar  
    37    17    22 ar  
    38    18    19 ar  
    39    19    20 ar  
    40    19    56 1   
    41    20    23 ar  
    42    21    22 1   
    43    21    25 1   
    44    22    23 ar  
    45    23    24 1   
    46    24    57 1   
    47    24    58 1   
    48    25    26 ar  
    49    25    30 ar  
    50    26    27 ar  
    51    26    59 1   
    52    27    28 ar  
    53    27    60 1   
    54    28    29 ar  
    55    28    31 1   
    56    29    30 ar  
    57    29    61 1   
    58    30    62 1   
    59    31    32 1   
    60    32    33 ar  
    61    32    37 ar  
    62    33    34 ar  
    63    33    63 1   
    64    34    35 ar  
    65    34    64 1   
    66    35    36 ar  
    67    35    65 1   
    68    36    37 ar  
    69    36    66 1   
    70    37    67 1   
@<TRIPOS>SUBSTRUCTURE
     1 S56         1 TEMP              0 ****  ****    0 ROOT
