@<TRIPOS>MOLECULE
molecule
   67    70     1     0     0
SMALL
bcc


@<TRIPOS>ATOM
      1 O1           0.0000     0.0000     0.0000 o          1 S56      -0.596100
      2 C21          1.2130     0.0000     0.0000 c          1 S56       0.663100
      3 N4           1.8870     0.0060    -1.1660 ns         1 S56      -0.573900
      4 C22          1.1550     0.0130    -2.4350 c3         1 S56       0.110700
      5 C24          0.7900     1.4520    -2.8070 c3         1 S56      -0.108600
      6 C23          2.0320    -0.5910    -3.5340 c3         1 S56      -0.108600
      7 C19          1.9660     0.0000     1.3050 c3         1 S56      -0.076600
      8 C20          2.8130    -1.2030     1.3830 c1         1 S56       0.211700
      9 N3           3.4760    -2.1210     1.4570 n1         1 S56      -0.348800
     10 C18          0.9720    -0.0010     2.4680 c3         1 S56       0.006800
     11 C17          1.7220     0.1220     3.7700 cc         1 S56      -0.070300
     12 N5           2.0350     1.3010     4.3910 na         1 S56      -0.158100
     13 C25          1.6880     2.6320     3.8860 c3         1 S56       0.045300
     14 C26          2.8150     3.1440     2.9870 c3         1 S56       0.117400
     15 O2           2.4780     4.4430     2.4930 os         1 S56      -0.428600
     16 C27          3.4680     5.0160     1.6390 c3         1 S56       0.131700
     17 C2           2.7180     1.0590     5.5530 ca         1 S56       0.517800
     18 N2           3.2370     1.8360     6.5020 nb         1 S56      -0.796000
     19 C1           3.8570     1.3090     7.5360 ca         1 S56       0.734900
     20 N1           4.0000     0.0070     7.6940 nb         1 S56      -0.820000
     21 C4           2.1830    -0.9180     4.5080 cd         1 S56      -0.056400
     22 C3           2.8470    -0.3360     5.6810 ca         1 S56      -0.381400
     23 C            3.5150    -0.8500     6.7990 ca         1 S56       0.774200
     24 N            3.6670    -2.2150     6.9680 nv         1 S56      -1.016500
     25 C5           2.0470    -2.3600     4.1900 ca         1 S56      -0.047800
     26 C16          3.1810    -3.1250     3.9190 ca         1 S56      -0.099500
     27 C15          3.0510    -4.4660     3.6240 ca         1 S56      -0.143500
     28 C8           1.7930    -5.0530     3.5970 ca         1 S56       0.105100
     29 C7           0.6620    -4.2930     3.8640 ca         1 S56      -0.143500
     30 C6           0.7860    -2.9540     4.1660 ca         1 S56      -0.099500
     31 O            1.6680    -6.3750     3.3050 os         1 S56      -0.249200
     32 C9           1.0630    -6.7170     2.1380 ca         1 S56       0.135100
     33 C14          0.7980    -8.0500     1.8560 ca         1 S56      -0.180000
     34 C13          0.1820    -8.3950     0.6690 ca         1 S56      -0.095000
     35 C12         -0.1710    -7.4130    -0.2390 ca         1 S56      -0.163000
     36 C11          0.0900    -6.0840     0.0390 ca         1 S56      -0.095000
     37 C10          0.7020    -5.7330     1.2270 ca         1 S56      -0.180000
     38 H1           2.8870     0.0430    -1.1660 hn         1 S56       0.317500
     39 H2           0.2500    -0.5740    -2.3330 h1         1 S56       0.082700
     40 H3           0.4090     1.4780    -3.8200 hc         1 S56       0.044200
     41 H4           1.6720     2.0770    -2.7370 hc         1 S56       0.044200
     42 H5           0.0320     1.8200    -2.1260 hc         1 S56       0.044200
     43 H6           2.9370    -0.0040    -3.6370 hc         1 S56       0.044200
     44 H7           1.4900    -0.5880    -4.4720 hc         1 S56       0.044200
     45 H8           2.2900    -1.6100    -3.2710 hc         1 S56       0.044200
     46 H9           2.5890     0.8840     1.3630 hc         1 S56       0.093700
     47 H10          0.4100    -0.9270     2.4620 hc         1 S56       0.085200
     48 H11          0.2920     0.8350     2.3630 hc         1 S56       0.085200
     49 H12          0.7690     2.5730     3.3150 h1         1 S56       0.081700
     50 H13          1.5540     3.3110     4.7190 h1         1 S56       0.081700
     51 H14          3.7340     3.2030     3.5580 h1         1 S56       0.032200
     52 H15          2.9500     2.4650     2.1540 h1         1 S56       0.032200
     53 H16          3.1920     4.8500     0.6040 h1         1 S56       0.033367
     54 H17          4.4270     4.5520     1.8350 h1         1 S56       0.033367
     55 H18          3.5360     6.0800     1.8280 h1         1 S56       0.033367
     56 H19          4.2670     1.9710     8.2890 h5         1 S56       0.060100
     57 H20          4.5220    -2.5810     7.3360 hn         1 S56       0.446800
     58 H21          2.9300    -2.8370     6.7010 hn         1 S56       0.446800
     59 H22          4.1620    -2.6680     3.9410 ha         1 S56       0.145000
     60 H23          3.9310    -5.0620     3.4140 ha         1 S56       0.149000
     61 H24         -0.3180    -4.7550     3.8430 ha         1 S56       0.149000
     62 H25         -0.0960    -2.3610     4.3740 ha         1 S56       0.145000
     63 H26          1.0740    -8.8190     2.5670 ha         1 S56       0.144500
     64 H27         -0.0240    -9.4350     0.4480 ha         1 S56       0.133000
     65 H28         -0.6520    -7.6860    -1.1700 ha         1 S56       0.130000
     66 H29         -0.1890    -5.3170    -0.6730 ha         1 S56       0.133000
     67 H30          0.9070    -4.6920     1.4450 ha         1 S56       0.144500
@<TRIPOS>BOND
     1     6     4 1
     2     4     5 1
     3     4     3 1
     4     3     2 1
     5    14    15 1
     6    14    13 1
     7    16    15 1
     8    13    12 1
     9     2     1 2
    10     2     7 1
    11     7     8 1
    12     7    10 1
    13    12    17 1
    14    12    11 1
    15    18    17 ar
    16    18    19 ar
    17     8     9 3
    18    17    22 ar
    19    19    20 ar
    20    11    10 1
    21    11    21 2
    22    22    21 1
    23    22    23 ar
    24    20    23 ar
    25    21    25 1
    26    30    29 ar
    27    30    25 ar
    28    23    24 1
    29    29    28 ar
    30    25    26 ar
    31    36    37 ar
    32    36    35 ar
    33    37    32 ar
    34    35    34 ar
    35    28    27 ar
    36    28    31 1
    37    26    27 ar
    38    32    31 1
    39    32    33 ar
    40    34    33 ar
    41     3    38 1
    42     4    39 1
    43     5    40 1
    44     5    41 1
    45     5    42 1
    46     6    43 1
    47     6    44 1
    48     6    45 1
    49     7    46 1
    50    10    47 1
    51    10    48 1
    52    13    49 1
    53    13    50 1
    54    14    51 1
    55    14    52 1
    56    16    53 1
    57    16    54 1
    58    16    55 1
    59    19    56 1
    60    24    57 1
    61    24    58 1
    62    26    59 1
    63    27    60 1
    64    29    61 1
    65    30    62 1
    66    33    63 1
    67    34    64 1
    68    35    65 1
    69    36    66 1
    70    37    67 1
@<TRIPOS>SUBSTRUCTURE
     1 S56         1 TEMP              0 ****  ****    0 ROOT
