@<TRIPOS>MOLECULE
molecule
   42    43     1     0     0
SMALL
bcc


@<TRIPOS>ATOM
      1 C1           0.0000     0.0000     0.0000 c3         1 S57       0.103700
      2 O4           1.4290     0.0000     0.0000 os         1 S57      -0.294900
      3 C4A          1.8220     0.0000     1.3020 ca         1 S57       0.095100
      4 C3A          0.8720     0.0040     2.3120 ca         1 S57      -0.186000
      5 C2A          1.2720    -0.0030     3.6350 ca         1 S57       0.033400
      6 Cl           0.0850    -0.0050     4.9010 cl         1 S57      -0.090400
      7 C1A          2.6240    -0.0030     3.9510 ca         1 S57       0.094100
      8 C6A          3.5720    -0.0010     2.9400 ca         1 S57      -0.183000
      9 C5A          3.1710     0.0000     1.6180 ca         1 S57      -0.119000
     10 O1           3.0170    -0.0040     5.2530 os         1 S57      -0.286900
     11 C6B          4.4470    -0.0040     5.2520 c3         1 S57       0.114400
     12 C5B          4.9570    -0.0050     6.6940 c3         1 S57      -0.086400
     13 C4B          6.4870    -0.0040     6.6930 c3         1 S57      -0.079400
     14 C3B          6.9970    -0.0050     8.1350 c3         1 S57      -0.080400
     15 C2B          8.5280    -0.0040     8.1340 c3         1 S57      -0.103400
     16 C1B          9.0390    -0.0050     9.5770 c3         1 S57       0.041300
     17 N1          10.5040    -0.0040     9.5760 na         1 S57      -0.187900
     18 C2C         11.3050    -1.0910     9.5810 cc         1 S57       0.391400
     19 N3          12.5490    -0.6930     9.5740 nd         1 S57      -0.697000
     20 C4C         12.5840     0.6470     9.5760 cd         1 S57       0.310200
     21 C5C         11.3150     1.0970     9.5770 cc         1 S57      -0.279600
     22 H11         -0.3610     0.8910     0.4990 h1         1 S57       0.045700
     23 H12         -0.3610    -0.0140    -1.0210 h1         1 S57       0.045700
     24 H13         -0.3610    -0.8780     0.5230 h1         1 S57       0.045700
     25 H3A         -0.1820     0.0480     2.0660 ha         1 S57       0.160000
     26 H6A          4.6270    -0.0000     3.1870 ha         1 S57       0.152000
     27 H5A          3.9130     0.0020     0.8280 ha         1 S57       0.149000
     28 H6B1         4.8080     0.8810     4.7420 h1         1 S57       0.041700
     29 H6B2         4.8080    -0.8880     4.7410 h1         1 S57       0.041700
     30 H5B1         4.5970    -0.8910     7.2040 hc         1 S57       0.057700
     31 H5B2         4.5960     0.8780     7.2050 hc         1 S57       0.057700
     32 H4B1         6.8470     0.8810     6.1830 hc         1 S57       0.045700
     33 H4B2         6.8480    -0.8880     6.1810 hc         1 S57       0.045700
     34 H3B1         6.6370    -0.8910     8.6450 hc         1 S57       0.045700
     35 H3B2         6.6360     0.8780     8.6470 hc         1 S57       0.045700
     36 H2B1         8.8890    -0.8880     7.6220 hc         1 S57       0.056200
     37 H2B2         8.8880     0.8810     7.6240 hc         1 S57       0.056200
     38 H1B1         8.6780     0.8780    10.0890 h1         1 S57       0.062200
     39 H1B2         8.6790    -0.8910    10.0870 h1         1 S57       0.062200
     40 H2C         10.9720    -2.1220     9.5810 h5         1 S57       0.063100
     41 H4C         13.4770     1.2600     9.5740 h4         1 S57       0.040100
     42 H5C         10.9980     2.1330     9.5780 h4         1 S57       0.171000
@<TRIPOS>BOND
     1     1     2 1
     2     1    22 1
     3     1    23 1
     4     1    24 1
     5     2     3 1
     6     3     4 ar
     7     3     9 ar
     8     4     5 ar
     9     4    25 1
    10     5     6 1
    11     5     7 ar
    12     7     8 ar
    13     7    10 1
    14     8     9 ar
    15     8    26 1
    16     9    27 1
    17    10    11 1
    18    11    12 1
    19    11    28 1
    20    11    29 1
    21    12    13 1
    22    12    30 1
    23    12    31 1
    24    13    14 1
    25    13    32 1
    26    13    33 1
    27    14    15 1
    28    14    34 1
    29    14    35 1
    30    15    16 1
    31    15    36 1
    32    15    37 1
    33    16    17 1
    34    16    38 1
    35    16    39 1
    36    17    18 1
    37    17    21 1
    38    18    19 2
    39    18    40 1
    40    19    20 1
    41    20    21 2
    42    20    41 1
    43    21    42 1
@<TRIPOS>SUBSTRUCTURE
     1 S57         1 TEMP              0 ****  ****    0 ROOT
