@<TRIPOS>MOLECULE
S57
   42    43     1     0     0
SMALL
bcc


@<TRIPOS>ATOM
      1 C1         -0.5460   -0.4950    0.0650 c3        1 S57      0.111700
      2 O4          0.8500   -0.2230    0.0720 os        1 S57     -0.324900
      3 C4A         1.4330   -0.0550    1.3140 ca        1 S57      0.104100
      4 C3A         0.7450   -0.1460    2.5270 ca        1 S57     -0.176000
      5 C2A         1.4380    0.0350    3.7290 ca        1 S57      0.024400
      6 CL          0.5690   -0.0890    5.1830 cl        1 S57     -0.073400
      7 C1A         2.8170    0.3180    3.7080 ca        1 S57      0.098100
      8 C6A         3.4940    0.4090    2.4810 ca        1 S57     -0.159000
      9 C5A         2.8120    0.2220    1.2870 ca        1 S57     -0.124000
     10 O1          3.4300    0.5420    4.9260 os        1 S57     -0.320900
     11 C6B         4.8540    0.3690    4.9420 c3        1 S57      0.130400
     12 C5B         5.2430    0.3060    6.4090 c3        1 S57     -0.087400
     13 C4B         6.7450    0.1890    6.5480 c3        1 S57     -0.077400
     14 C3B         7.1490    0.1200    8.0050 c3        1 S57     -0.078400
     15 C2B         8.6520    0.0080    8.1460 c3        1 S57     -0.102400
     16 C1B         9.0290   -0.0630    9.6270 c3        1 S57      0.039300
     17 N1         10.4350   -0.1640    9.8840 na        1 S57     -0.207900
     18 C2C        11.1830   -1.3450   10.0230 cc        1 S57      0.386400
     19 N3         12.4930   -1.0780   10.2000 nd        1 S57     -0.667000
     20 C4C        12.6090    0.3110   10.1620 cd        1 S57      0.289200
     21 C5C        11.3450    0.8960    9.9600 cc        1 S57     -0.256600
     22 H11        -1.1150    0.3470    0.5260 h1        1 S57      0.046367
     23 H12        -0.7640   -1.4540    0.5960 h1        1 S57      0.046367
     24 H13        -0.7870   -0.5850   -1.0250 h1        1 S57      0.046367
     25 H3A        -0.3330   -0.3610    2.5530 ha        1 S57      0.153000
     26 H6A         4.5700    0.6350    2.4570 ha        1 S57      0.144000
     27 H5A         3.3310    0.2900    0.3210 ha        1 S57      0.154000
     28 H6B1        5.3310    1.2500    4.4370 h1        1 S57      0.039700
     29 H6B2        5.1380   -0.5730    4.4060 h1        1 S57      0.039700
     30 H5B1        4.8740    1.2280    6.9310 hc        1 S57      0.060200
     31 H5B2        4.7380   -0.5720    6.8900 hc        1 S57      0.060200
     32 H4B1        7.1050   -0.7290    6.0130 hc        1 S57      0.043700
     33 H4B2        7.2400    1.0710    6.0620 hc        1 S57      0.043700
     34 H3B1        6.6560   -0.7640    8.4890 hc        1 S57      0.044700
     35 H3B2        6.7850    1.0370    8.5400 hc        1 S57      0.044700
     36 H2B1        9.1450    0.8940    7.6660 hc        1 S57      0.055200
     37 H2B2        9.0170   -0.9070    7.6110 hc        1 S57      0.055200
     38 H1B1        8.5250   -0.9600   10.0890 h1        1 S57      0.060200
     39 H1B2        8.6420    0.8620   10.1450 h1        1 S57      0.060200
     40 H2C        10.7260   -2.3380   10.0020 h5        1 S57      0.059100
     41 H4C        13.5710    0.8060   10.2820 h4        1 S57      0.041100
     42 H5C        11.0380    1.9350    9.8790 h4        1 S57      0.175000
@<TRIPOS>BOND
     1    1    2 1   
     2    1   22 1   
     3    1   23 1   
     4    1   24 1   
     5    2    3 1   
     6    3    4 ar  
     7    3    9 ar  
     8    4    5 ar  
     9    4   25 1   
    10    5    6 1   
    11    5    7 ar  
    12    7    8 ar  
    13    7   10 1   
    14    8    9 ar  
    15    8   26 1   
    16    9   27 1   
    17   10   11 1   
    18   11   12 1   
    19   11   28 1   
    20   11   29 1   
    21   12   13 1   
    22   12   30 1   
    23   12   31 1   
    24   13   14 1   
    25   13   32 1   
    26   13   33 1   
    27   14   15 1   
    28   14   34 1   
    29   14   35 1   
    30   15   16 1   
    31   15   36 1   
    32   15   37 1   
    33   16   17 1   
    34   16   38 1   
    35   16   39 1   
    36   17   18 1   
    37   17   21 1   
    38   18   19 2   
    39   18   40 1   
    40   19   20 1   
    41   20   21 2   
    42   20   41 1   
    43   21   42 1   
@<TRIPOS>SUBSTRUCTURE
     1 S57         1 TEMP              0 ****  ****    0 ROOT
