@<TRIPOS>MOLECULE
S58
   38    40     1     0     0
SMALL
bcc


@<TRIPOS>ATOM
      1 C1           0.0000     0.0000     0.0000 cc         1 S58      -0.231300
      2 C2           1.3660     0.0000     0.0000 cd         1 S58      -0.163300
      3 C3          -0.4290     0.0080     1.3280 cc         1 S58       0.285600
      4 C4          -1.8640     0.0140     1.7890 c3         1 S58       0.572600
      5 C5           3.0970    -0.0030     1.7570 ca         1 S58      -0.024200
      6 C6           3.4600     0.7730     2.8500 ca         1 S58      -0.114000
      7 C7           4.7660     0.7680     3.2950 ca         1 S58       0.029500
      8 C8           5.7140    -0.0090     2.6540 ca         1 S58      -0.242500
      9 C9           5.3560    -0.7790     1.5620 ca         1 S58       0.029500
     10 C10          4.0490    -0.7820     1.1160 ca         1 S58      -0.114000
     11 C11          2.2440    -0.0050    -1.1910 ca         1 S58      -0.045000
     12 C12          1.9150    -0.7860    -2.2990 ca         1 S58      -0.086500
     13 C13          2.7360    -0.7880    -3.4070 ca         1 S58      -0.073000
     14 C14          3.8860    -0.0170    -3.4200 ca         1 S58       0.037100
     15 C15          4.2170     0.7610    -2.3240 ca         1 S58      -0.073000
     16 C16          3.4000     0.7750    -1.2120 ca         1 S58      -0.086500
     17 N1           1.7710     0.0000     1.3040 na         1 S58       0.578300
     18 N2           0.6230     0.0080     2.1070 nd         1 S58      -0.582800
     19 N3           7.5150    -1.2180     4.3520 nz         1 S58      -0.131500
     20 O1           7.5470     1.2030     3.9400 o          1 S58      -0.495800
     21 O2           8.1670    -0.4300     2.1180 o          1 S58      -0.495800
     22 Br1          5.0070    -0.0240    -4.9430 br         1 S58      -0.084100
     23 F1          -1.9050     0.0200     3.1860 f          1 S58      -0.195967
     24 F2          -2.5050     1.1560     1.2990 f          1 S58      -0.195967
     25 F3          -2.5130    -1.1280     1.3080 f          1 S58      -0.195967
     26 S1           7.3800    -0.0130     3.2260 sy         1 S58       0.944200
     27 H1          -0.6370     0.0490    -0.8750 ha         1 S58       0.161000
     28 H6           2.7180     1.3810     3.3530 ha         1 S58       0.153000
     29 H7           5.0490     1.3710     4.1490 ha         1 S58       0.131000
     30 H9           6.1000    -1.3870     1.0610 ha         1 S58       0.131000
     31 H10          3.7700    -1.3860     0.2610 ha         1 S58       0.153000
     32 H12          1.0160    -1.3900    -2.2890 ha         1 S58       0.114500
     33 H13          2.4820    -1.3950    -4.2670 ha         1 S58       0.126500
     34 H15          5.1160     1.3650    -2.3410 ha         1 S58       0.126500
     35 H16          3.6600     1.3840    -0.3550 ha         1 S58       0.114500
     36 HN31         6.8860    -1.0380     5.1100 hn         1 S58       0.315133
     37 HN32         8.4540    -1.2500     4.6970 hn         1 S58       0.315133
     38 H33          7.2850    -2.0960     3.9300 hn         1 S58       0.315133
@<TRIPOS>BOND
     1     1     2 2   
     2     1     3 1   
     3     1    27 1   
     4     2    11 1   
     5     2    17 1   
     6     3     4 1   
     7     3    18 2   
     8     4    23 1   
     9     4    24 1   
    10     4    25 1   
    11     5     6 ar  
    12     5    10 ar  
    13     5    17 1   
    14     6     7 ar  
    15     6    28 1   
    16     7     8 ar  
    17     7    29 1   
    18     8     9 ar  
    19     8    26 1   
    20     9    10 ar  
    21     9    30 1   
    22    10    31 1   
    23    11    12 ar  
    24    11    16 ar  
    25    12    13 ar  
    26    12    32 1   
    27    13    14 ar  
    28    13    33 1   
    29    14    15 ar  
    30    14    22 1   
    31    15    16 ar  
    32    15    34 1   
    33    16    35 1   
    34    17    18 1   
    35    19    26 1   
    36    19    36 1   
    37    19    37 1   
    38    19    38 1   
    39    20    26 2   
    40    21    26 2   
@<TRIPOS>SUBSTRUCTURE
     1 S58         1 TEMP              0 ****  ****    0 ROOT
