@<TRIPOS>MOLECULE
S5B
   55    58     1     0     0
SMALL
bcc


@<TRIPOS>ATOM
      1 C01         1.0680    1.5440    0.2940 c3        1 S5B     -0.134400
      2 C02         1.8080    0.2910    0.5380 cc        1 S5B      0.334600
      3 N01         2.1340   -0.2070    1.7480 nd        1 S5B     -0.385300
      4 O01         2.7800   -1.3460    1.5940 os        1 S5B     -0.132100
      5 C03         2.9020   -1.6520    0.2160 cd        1 S5B      0.261000
      6 C04         3.5900   -2.8960   -0.1230 c3        1 S5B     -0.138400
      7 C05         2.2990   -0.6290   -0.5000 cc        1 S5B     -0.243600
      8 C06         2.1740   -0.4970   -1.9310 ca        1 S5B     -0.028000
      9 C07         2.2970    0.7780   -2.5440 ca        1 S5B     -0.153000
     10 C08         2.1820    0.9120   -3.9050 ca        1 S5B     -0.089000
     11 C09         1.9420   -0.2080   -4.7410 ca        1 S5B     -0.152300
     12 C10         1.8280   -0.1090   -6.1820 ca        1 S5B      0.165600
     13 N02         1.9950    1.1370   -6.8290 nh        1 S5B     -0.624000
     14 C11         1.0660    2.1770   -6.6800 ca        1 S5B      0.180600
     15 C12        -0.0120    2.0540   -5.7680 ca        1 S5B     -0.196000
     16 C13        -0.8870    3.1020   -5.5300 ca        1 S5B     -0.106000
     17 C14        -0.7240    4.3050   -6.2070 ca        1 S5B     -0.192000
     18 C15         0.3100    4.4350   -7.1300 ca        1 S5B     -0.109000
     19 C16         1.2170    3.4050   -7.4010 ca        1 S5B     -0.108300
     20 C17         2.2770    3.6140   -8.4590 c3        1 S5B      0.003300
     21 C18         2.3700    5.0840   -8.8820 c3        1 S5B     -0.092767
     22 C19         3.6670    3.2110   -7.9650 c3        1 S5B     -0.092767
     23 C20         1.9110    2.8220   -9.7140 c3        1 S5B     -0.092767
     24 C21         1.6730   -1.2870   -6.9100 ca        1 S5B     -0.273900
     25 C22         1.5840   -2.5220   -6.1940 ca        1 S5B      0.457200
     26 N1          1.6540   -2.6520   -4.8820 nb        1 S5B     -0.712000
     27 C23         1.8440   -1.5010   -4.1410 ca        1 S5B      0.393600
     28 C24         1.9550   -1.6100   -2.7190 ca        1 S5B     -0.164300
     29 C1          1.6030   -1.3820   -8.4270 c         1 S5B      0.919200
     30 O02         1.0390   -2.3980   -8.9140 o         1 S5B     -0.821800
     31 O1          2.1310   -0.4650   -9.1240 o         1 S5B     -0.821800
     32 H011        0.3490    1.7640    1.1210 hc        1 S5B      0.058367
     33 H012        0.5020    1.4620   -0.6680 hc        1 S5B      0.058367
     34 H013        1.7880    2.3980    0.2140 hc        1 S5B      0.058367
     35 H041        4.4100   -3.1070    0.6080 hc        1 S5B      0.065033
     36 H042        2.8660   -3.7510   -0.1020 hc        1 S5B      0.065033
     37 H043        4.0200   -2.8180   -1.1540 hc        1 S5B      0.065033
     38 H07         2.5000    1.6560   -1.9130 ha        1 S5B      0.125000
     39 H24         1.8600   -2.6050   -2.2550 ha        1 S5B      0.138000
     40 H08         2.2800    1.9110   -4.3610 ha        1 S5B      0.148000
     41 H02         2.3260    1.0170   -7.7810 hn        1 S5B      0.475800
     42 H12        -0.1670    1.1010   -5.2370 ha        1 S5B      0.144000
     43 H13        -1.7110    2.9730   -4.8130 ha        1 S5B      0.118000
     44 H14        -1.4090    5.1440   -6.0280 ha        1 S5B      0.115000
     45 H15         0.3850    5.3990   -7.6560 ha        1 S5B      0.120000
     46 H181        1.4330    5.4150   -9.3910 hc        1 S5B      0.038144
     47 H182        3.2090    5.2120   -9.6090 hc        1 S5B      0.038144
     48 H183        2.5650    5.7380   -7.9990 hc        1 S5B      0.038144
     49 H191        4.4440    3.9130   -8.3580 hc        1 S5B      0.038144
     50 H192        3.7160    3.2370   -6.8510 hc        1 S5B      0.038144
     51 H193        3.9430    2.1890   -8.3200 hc        1 S5B      0.038144
     52 H201        0.9140    3.1510  -10.0920 hc        1 S5B      0.038144
     53 H202        1.8710    1.7190   -9.5350 hc        1 S5B      0.038144
     54 H203        2.6740    3.0140  -10.5080 hc        1 S5B      0.038144
     55 H22         1.4230   -3.4440   -6.7910 h4        1 S5B      0.050100
@<TRIPOS>BOND
     1    1    2 1   
     2    1   32 1   
     3    1   33 1   
     4    1   34 1   
     5    2    3 2   
     6    2    7 1   
     7    3    4 1   
     8    4    5 1   
     9    5    6 1   
    10    5    7 2   
    11    6   35 1   
    12    6   36 1   
    13    6   37 1   
    14    7    8 1   
    15    8    9 ar  
    16    8   28 ar  
    17    9   10 ar  
    18    9   38 1   
    19   10   11 ar  
    20   10   40 1   
    21   11   12 ar  
    22   11   27 ar  
    23   12   13 1   
    24   12   24 ar  
    25   13   14 1   
    26   13   41 1   
    27   14   15 ar  
    28   14   19 ar  
    29   15   16 ar  
    30   15   42 1   
    31   16   17 ar  
    32   16   43 1   
    33   17   18 ar  
    34   17   44 1   
    35   18   19 ar  
    36   18   45 1   
    37   19   20 1   
    38   20   21 1   
    39   20   22 1   
    40   20   23 1   
    41   21   46 1   
    42   21   47 1   
    43   21   48 1   
    44   22   49 1   
    45   22   50 1   
    46   22   51 1   
    47   23   52 1   
    48   23   53 1   
    49   23   54 1   
    50   24   25 ar  
    51   24   29 1   
    52   25   26 ar  
    53   25   55 1   
    54   26   27 ar  
    55   27   28 ar  
    56   28   39 1   
    57   29   30 1   
    58   29   31 1   
@<TRIPOS>SUBSTRUCTURE
     1 S5B         1 TEMP              0 ****  ****    0 ROOT
