@<TRIPOS>MOLECULE
S5D
   55    57     1     0     0
SMALL
bcc


@<TRIPOS>ATOM
      1 C1           0.0000     0.0000     0.0000 ca         1 S5D      -0.061000
      2 C2           1.3820     0.0000     0.0000 ca         1 S5D      -0.056300
      3 C3           2.0730     0.0000     1.1980 ca         1 S5D      -0.053000
      4 C4           1.3820     0.0010     2.3940 ca         1 S5D      -0.065000
      5 C5          -0.0000     0.0030     2.3940 ca         1 S5D      -0.125000
      6 C6          -0.6910     0.0010     1.1980 ca         1 S5D      -0.182300
      7 N11          4.2830     0.7800    -3.1460 nb         1 S5D      -0.596000
      8 C12          4.9780     0.7530    -4.2730 ca         1 S5D       0.510200
      9 N12          6.1740     0.0460    -4.3270 nv         1 S5D      -0.659500
     10 C13          4.5220     1.4240    -5.4040 ca         1 S5D      -0.219300
     11 C14          3.3310     2.1230    -5.3350 ca         1 S5D      -0.045300
     12 C15          2.6320     2.1270    -4.1350 ca         1 S5D      -0.224300
     13 C16          3.1440     1.4400    -3.0530 ca         1 S5D       0.368600
     14 C19          2.1350    -0.0020    -1.3050 c3         1 S5D       0.020900
     15 N21         -4.9360    -0.6170     2.0600 nb         1 S5D      -0.767000
     16 C22         -6.2580    -0.6030     1.9860 ca         1 S5D       0.533200
     17 N22         -6.9830     0.2820     2.7740 nv         1 S5D      -0.509500
     18 C23         -6.9280    -1.4660     1.1250 ca         1 S5D      -0.278300
     19 C24         -6.1950    -2.3430     0.3450 ca         1 S5D       0.026700
     20 C25         -4.8100    -2.3260     0.4530 ca         1 S5D      -0.252300
     21 C26         -4.2100    -1.4420     1.3280 ca         1 S5D       0.372600
     22 C28         -2.7090    -1.4190     1.4490 c3         1 S5D      -0.068700
     23 C29         -2.1990     0.0010     1.1980 c3         1 S5D       0.024800
     24 N29         -2.6880     0.8920     2.2590 nz         1 S5D       0.044400
     25 H1          -0.5420    -0.0010    -0.9380 ha         1 S5D       0.118000
     26 H3           3.1560    -0.0010     1.1980 ha         1 S5D       0.129000
     27 H4           1.9240     0.0020     3.3320 ha         1 S5D       0.121000
     28 H5          -0.5420     0.0040     3.3320 ha         1 S5D       0.090000
     29 HN12         6.1760    -0.9130    -4.6130 hn         1 S5D       0.280800
     30 HN1A         7.0300     0.4890    -4.0570 hn         1 S5D       0.280800
     31 H13          5.0920     1.3990    -6.3240 ha         1 S5D       0.127000
     32 H15          1.6960     2.6660    -4.0480 ha         1 S5D       0.115000
     33 H17          3.2680     3.8400    -6.5930 hc         1 S5D       0.013700
     34 H17A         1.7300     2.9790    -6.4480 hc         1 S5D       0.013700
     35 H17B         3.0320     2.3030    -7.4360 hc         1 S5D       0.013700
     36 H19          3.0820    -0.5120    -1.1750 hc         1 S5D       0.039200
     37 H19A         1.5500    -0.5130    -2.0590 hc         1 S5D       0.039200
     38 HN22        -7.9810     0.3100     2.7070 hn         1 S5D       0.275800
     39 HN2A        -6.5070     0.8820     3.4190 hn         1 S5D       0.275800
     40 H23         -8.0100    -1.4530     1.0660 ha         1 S5D       0.136000
     41 H25         -4.2060    -2.9990    -0.1440 ha         1 S5D       0.131000
     42 H28         -2.4230    -1.7350     2.4450 hc         1 S5D       0.057700
     43 H28A        -2.2770    -2.0930     0.7190 hc         1 S5D       0.057700
     44 H29         -2.5600     0.3500     0.2390 hx         1 S5D       0.084700
     45 HN29        -3.5500     1.3110     1.9720 hn         1 S5D       0.233800
     46 HN2B        -2.0100     1.6090     2.4310 hn         1 S5D       0.233800
     47 C18          2.3900     1.4400    -1.7480 c3         1 S5D      -0.059700
     48 H18          1.4430     1.9510    -1.8780 hc         1 S5D       0.019200
     49 H18A         2.9750     1.9520    -0.9930 hc         1 S5D       0.019200
     50 H293        -2.8440     0.3630     3.0940 hn         1 S5D       0.233800
     51 C27         -6.8820    -3.2940    -0.6000 c3         1 S5D       0.053200
     52 C17          2.8030     2.8630    -6.5380 c3         1 S5D       0.061200
     53 H27         -7.9530    -3.1430    -0.5480 hc         1 S5D       0.022700
     54 H27A        -6.5400    -3.1090    -1.6110 hc         1 S5D       0.022700
     55 H27B        -6.6460    -4.3140    -0.3200 hc         1 S5D       0.022700
@<TRIPOS>BOND
     1     1     2 ar  
     2     1     6 ar  
     3     1    25 1   
     4     2     3 ar  
     5     2    14 1   
     6     3     4 ar  
     7     3    26 1   
     8     4     5 ar  
     9     4    27 1   
    10     5     6 ar  
    11     5    28 1   
    12     6    23 1   
    13     7     8 ar  
    14     7    13 ar  
    15     8     9 1   
    16     8    10 ar  
    17     9    29 1   
    18     9    30 1   
    19    10    11 ar  
    20    10    31 1   
    21    11    12 ar  
    22    11    52 1   
    23    12    13 ar  
    24    12    32 1   
    25    13    47 1   
    26    14    36 1   
    27    14    37 1   
    28    14    47 1   
    29    15    16 ar  
    30    15    21 ar  
    31    16    17 1   
    32    16    18 ar  
    33    17    38 1   
    34    17    39 1   
    35    18    19 ar  
    36    18    40 1   
    37    19    20 ar  
    38    19    51 1   
    39    20    21 ar  
    40    20    41 1   
    41    21    22 1   
    42    22    23 1   
    43    22    42 1   
    44    22    43 1   
    45    23    24 1   
    46    23    44 1   
    47    24    45 1   
    48    24    46 1   
    49    24    50 1   
    50    33    52 1   
    51    34    52 1   
    52    35    52 1   
    53    47    48 1   
    54    47    49 1   
    55    51    53 1   
    56    51    54 1   
    57    51    55 1   
@<TRIPOS>SUBSTRUCTURE
     1 S5D         1 TEMP              0 ****  ****    0 ROOT
