@<TRIPOS>MOLECULE
molecule
   55    57     1     0     0
SMALL
bcc


@<TRIPOS>ATOM
      1 C1           0.0000     0.0000     0.0000 ca         1 S5D      -0.098000
      2 C2           1.3820     0.0000     0.0000 ca         1 S5D      -0.055300
      3 C3           2.0730     0.0000     1.1980 ca         1 S5D      -0.087000
      4 C4           1.3820     0.0010     2.3940 ca         1 S5D      -0.101000
      5 C5          -0.0000     0.0030     2.3940 ca         1 S5D      -0.149000
      6 C6          -0.6910     0.0010     1.1980 ca         1 S5D      -0.171300
      7 N11          4.2830     0.7800    -3.1460 nb         1 S5D      -0.725000
      8 C12          4.9780     0.7530    -4.2730 ca         1 S5D       0.690200
      9 N12          6.1740     0.0460    -4.3270 nv         1 S5D      -1.083500
     10 C13          4.5220     1.4240    -5.4040 ca         1 S5D      -0.252300
     11 C14          3.3310     2.1230    -5.3350 ca         1 S5D      -0.037300
     12 C15          2.6320     2.1270    -4.1350 ca         1 S5D      -0.259300
     13 C16          3.1440     1.4400    -3.0530 ca         1 S5D       0.426600
     14 C19          2.1350    -0.0020    -1.3050 c3         1 S5D      -0.039100
     15 N21         -4.9360    -0.6170     2.0600 nb         1 S5D      -0.867000
     16 C22         -6.2580    -0.6030     1.9860 ca         1 S5D       0.724200
     17 N22         -6.9830     0.2820     2.7740 nv         1 S5D      -1.005500
     18 C23         -6.9280    -1.4660     1.1250 ca         1 S5D      -0.297300
     19 C24         -6.1950    -2.3430     0.3450 ca         1 S5D       0.017700
     20 C25         -4.8100    -2.3260     0.4530 ca         1 S5D      -0.279300
     21 C26         -4.2100    -1.4420     1.3280 ca         1 S5D       0.423600
     22 C28         -2.7090    -1.4190     1.4490 c3         1 S5D      -0.135700
     23 C29         -2.1990     0.0010     1.1980 c3         1 S5D       0.181800
     24 N29         -2.6880     0.8920     2.2590 nz         1 S5D      -0.799600
     25 H1          -0.5420    -0.0010    -0.9380 ha         1 S5D       0.143000
     26 H3           3.1560    -0.0010     1.1980 ha         1 S5D       0.162000
     27 H4           1.9240     0.0020     3.3320 ha         1 S5D       0.154000
     28 H5          -0.5420     0.0040     3.3320 ha         1 S5D       0.113000
     29 HN12         6.1760    -0.9130    -4.6130 hn         1 S5D       0.439800
     30 HN1A         7.0300     0.4890    -4.0570 hn         1 S5D       0.439800
     31 H13          5.0920     1.3990    -6.3240 ha         1 S5D       0.152000
     32 H15          1.6960     2.6660    -4.0480 ha         1 S5D       0.134000
     33 H17          3.2680     3.8400    -6.5930 hc         1 S5D       0.051367
     34 H17A         1.7300     2.9790    -6.4480 hc         1 S5D       0.051367
     35 H17B         3.0320     2.3030    -7.4360 hc         1 S5D       0.051367
     36 H19          3.0820    -0.5120    -1.1750 hc         1 S5D       0.073700
     37 H19A         1.5500    -0.5130    -2.0590 hc         1 S5D       0.073700
     38 HN22        -7.9810     0.3100     2.7070 hn         1 S5D       0.446800
     39 HN2A        -6.5070     0.8820     3.4190 hn         1 S5D       0.446800
     40 H23         -8.0100    -1.4530     1.0660 ha         1 S5D       0.157000
     41 H25         -4.2060    -2.9990    -0.1440 ha         1 S5D       0.151000
     42 H28         -2.4230    -1.7350     2.4450 hc         1 S5D       0.095200
     43 H28A        -2.2770    -2.0930     0.7190 hc         1 S5D       0.095200
     44 H29         -2.5600     0.3500     0.2390 hx         1 S5D       0.111700
     45 HN29        -3.5500     1.3110     1.9720 hn         1 S5D       0.456133
     46 HN2B        -2.0100     1.6090     2.4310 hn         1 S5D       0.456133
     47 C18          2.3900     1.4400    -1.7480 c3         1 S5D      -0.116700
     48 H18          1.4430     1.9510    -1.8780 hc         1 S5D       0.053200
     49 H18A         2.9750     1.9520    -0.9930 hc         1 S5D       0.053200
     50 H293        -2.8440     0.3630     3.0940 hn         1 S5D       0.456133
     51 C27         -6.8820    -3.2940    -0.6000 c3         1 S5D      -0.057800
     52 C17          2.8030     2.8630    -6.5380 c3         1 S5D      -0.051800
     53 H27         -7.9530    -3.1430    -0.5480 hc         1 S5D       0.062033
     54 H27A        -6.5400    -3.1090    -1.6110 hc         1 S5D       0.062033
     55 H27B        -6.6460    -4.3140    -0.3200 hc         1 S5D       0.062033
@<TRIPOS>BOND
     1     1     2 ar
     2     1     6 ar
     3     2     3 ar
     4     2    14 1
     5     3     4 ar
     6     4     5 ar
     7     5     6 ar
     8     6    23 1
     9     7     8 ar
    10     7    13 ar
    11     8     9 1
    12     8    10 ar
    13    10    11 ar
    14    11    12 ar
    15    11    52 1
    16    12    13 ar
    17    13    47 1
    18    47    14 1
    19    15    16 ar
    20    15    21 ar
    21    16    17 1
    22    16    18 ar
    23    18    19 ar
    24    19    20 ar
    25    19    51 1
    26    20    21 ar
    27    21    22 1
    28    22    23 1
    29    23    24 1
    30     1    25 1
    31     3    26 1
    32     4    27 1
    33     5    28 1
    34     9    29 1
    35     9    30 1
    36    10    31 1
    37    12    32 1
    38    52    33 1
    39    52    34 1
    40    52    35 1
    41    47    48 1
    42    47    49 1
    43    14    36 1
    44    14    37 1
    45    17    38 1
    46    17    39 1
    47    18    40 1
    48    20    41 1
    49    51    53 1
    50    51    54 1
    51    51    55 1
    52    22    42 1
    53    22    43 1
    54    23    44 1
    55    24    45 1
    56    24    46 1
    57    50    24 1
@<TRIPOS>SUBSTRUCTURE
     1 S5D         1 TEMP              0 ****  ****    0 ROOT
