@<TRIPOS>MOLECULE
molecule
   67    70     1     0     0
SMALL
bcc


@<TRIPOS>ATOM
      1 C1           0.0000     0.0000     0.0000 c3         1 S5H      -0.070400
      2 C2           1.5290     0.0000     0.0000 c3         1 S5H      -0.100400
      3 C3           2.0400     0.0000     1.4420 c3         1 S5H       0.157100
      4 O3           3.4910     0.0020     1.4430 os         1 S5H      -0.447900
      5 C4           1.5310    -1.2490     2.1630 c3         1 S5H      -0.077400
      6 C5           0.0000    -1.2490     2.1630 c3         1 S5H      -0.054700
      7 C6          -0.5100    -2.4960     2.8870 c3         1 S5H      -0.076400
      8 C7          -2.0390    -2.5000     2.8840 c3         1 S5H      -0.073400
      9 C8          -2.5460    -2.5060     1.4420 c3         1 S5H      -0.063700
     10 C9          -2.0390    -1.2580     0.7040 c3         1 S5H      -0.053700
     11 C10         -0.5090    -1.2490     0.7220 c3         1 S5H      -0.055000
     12 C11         -2.5440    -1.2070    -0.7340 c3         1 S5H      -0.078400
     13 C12         -4.0780    -1.3090    -0.7940 c3         1 S5H      -0.062400
     14 C13         -4.5110    -2.5690    -0.0690 c3         1 S5H      -0.058000
     15 C14         -4.0620    -2.4620     1.4150 c3         1 S5H      -0.064700
     16 C15         -4.7770    -3.6620     2.0420 c3         1 S5H      -0.076400
     17 C16         -6.1800    -3.6200     1.3760 c3         1 S5H      -0.075400
     18 C17         -6.0040    -2.8600     0.0380 c3         1 S5H      -0.159700
     19 C18         -3.7870    -3.7790    -0.6590 c3         1 S5H      -0.104100
     20 C19         -0.0010    -2.4980    -0.0010 c3         1 S5H      -0.093100
     21 C20         -6.4510    -3.7220    -1.1140 c          1 S5H       0.576100
     22 O20         -6.4150    -4.9250    -1.0170 o          1 S5H      -0.533100
     23 C21         -6.9440    -3.0820    -2.3870 c3         1 S5H      -0.195100
     24 CH1          4.1630     1.1630     1.4430 c          1 S5H       0.623100
     25 OH1          3.5580     2.2090     1.4430 o          1 S5H      -0.570000
     26 CH2          5.6690     1.1650     1.4420 c3         1 S5H      -0.102400
     27 CH3          6.1800     2.6070     1.4430 c3         1 S5H      -0.174400
     28 CH4          7.6860     2.6080     1.4440 c          1 S5H       0.890600
     29 OH4          8.2900     1.5610     1.4430 o          1 S5H      -0.852800
     30 OH5          8.3570     3.7690     1.4430 o          1 S5H      -0.852800
     31 H11         -0.3600     0.8840     0.5120 hc         1 S5H       0.043700
     32 H12         -0.3600    -0.0030    -1.0220 hc         1 S5H       0.043700
     33 H21          1.8890    -0.8860    -0.5090 hc         1 S5H       0.056200
     34 H22          1.8890     0.8860    -0.5090 hc         1 S5H       0.056200
     35 H3           1.6740     0.8830     1.9520 h1         1 S5H       0.063700
     36 H41          1.8910    -2.1320     1.6510 hc         1 S5H       0.053200
     37 H42          1.8900    -1.2460     3.1850 hc         1 S5H       0.053200
     38 H5          -0.3600    -0.3640     2.6730 hc         1 S5H       0.053700
     39 H61         -0.1520    -2.4880     3.9100 hc         1 S5H       0.043700
     40 H62         -0.1470    -3.3810     2.3790 hc         1 S5H       0.043700
     41 H71         -2.4020    -1.6140     3.3900 hc         1 S5H       0.039700
     42 H72         -2.3970    -3.3860     3.3950 hc         1 S5H       0.039700
     43 H8          -2.1970    -3.3980     0.9350 hc         1 S5H       0.067700
     44 H9          -2.3960    -0.3790     1.2260 hc         1 S5H       0.049700
     45 H111        -2.2350    -0.2710    -1.1830 hc         1 S5H       0.048700
     46 H112        -2.1130    -2.0320    -1.2890 hc         1 S5H       0.048700
     47 H121        -4.3980    -1.3590    -1.8280 hc         1 S5H       0.038200
     48 H122        -4.5190    -0.4440    -0.3130 hc         1 S5H       0.038200
     49 H14         -4.4220    -1.5380     1.8510 hc         1 S5H       0.055700
     50 H151        -4.2650    -4.5840     1.7940 hc         1 S5H       0.048700
     51 H152        -4.8610    -3.5390     3.1150 hc         1 S5H       0.048700
     52 H161        -6.5310    -4.6270     1.1860 hc         1 S5H       0.053200
     53 H162        -6.8770    -3.0900     2.0140 hc         1 S5H       0.053200
     54 H17         -6.5640    -1.9330     0.0600 hc         1 S5H       0.062700
     55 H181        -3.9890    -3.8390    -1.7220 hc         1 S5H       0.046033
     56 H182        -4.1380    -4.6820    -0.1740 hc         1 S5H       0.046033
     57 H183        -2.7200    -3.6750    -0.5000 hc         1 S5H       0.046033
     58 H191        -0.2850    -2.4520    -1.0450 hc         1 S5H       0.038700
     59 H192        -0.4350    -3.3800     0.4540 hc         1 S5H       0.038700
     60 H193         1.0790    -2.5460     0.0770 hc         1 S5H       0.038700
     61 H211        -7.3030    -3.8500    -3.0610 hc         1 S5H       0.059033
     62 H212        -6.1320    -2.5400    -2.8560 hc         1 S5H       0.059033
     63 H213        -7.7510    -2.3970    -2.1570 hc         1 S5H       0.059033
     64 HH21         6.0310     0.6540     2.3260 hc         1 S5H       0.077700
     65 HH22         6.0300     0.6550     0.5570 hc         1 S5H       0.077700
     66 HH31         5.8190     3.1180     0.5580 hc         1 S5H       0.044700
     67 HH32         5.8180     3.1170     2.3270 hc         1 S5H       0.044700
@<TRIPOS>BOND
     1     1     2 1
     2     1    11 1
     3     1    31 1
     4     1    32 1
     5     2     3 1
     6     2    33 1
     7     2    34 1
     8     3     4 1
     9     3     5 1
    10     3    35 1
    11     4    24 1
    12     5     6 1
    13     5    36 1
    14     5    37 1
    15     6     7 1
    16     6    11 1
    17     6    38 1
    18     7     8 1
    19     7    39 1
    20     7    40 1
    21     8     9 1
    22     8    41 1
    23     8    42 1
    24     9    10 1
    25     9    15 1
    26     9    43 1
    27    10    11 1
    28    10    12 1
    29    10    44 1
    30    11    20 1
    31    12    13 1
    32    12    45 1
    33    12    46 1
    34    13    14 1
    35    13    47 1
    36    13    48 1
    37    14    15 1
    38    14    18 1
    39    14    19 1
    40    15    16 1
    41    15    49 1
    42    16    17 1
    43    16    50 1
    44    16    51 1
    45    17    18 1
    46    17    52 1
    47    17    53 1
    48    18    21 1
    49    18    54 1
    50    19    55 1
    51    19    56 1
    52    19    57 1
    53    20    58 1
    54    20    59 1
    55    20    60 1
    56    21    22 2
    57    21    23 1
    58    23    61 1
    59    23    62 1
    60    23    63 1
    61    24    25 2
    62    24    26 1
    63    26    27 1
    64    26    64 1
    65    26    65 1
    66    27    28 1
    67    27    66 1
    68    27    67 1
    69    28    29 1
    70    28    30 1
@<TRIPOS>SUBSTRUCTURE
     1 S5H         1 TEMP              0 ****  ****    0 ROOT
