@<TRIPOS>MOLECULE
S5H
   67    70     1     0     0
SMALL
bcc


@<TRIPOS>ATOM
      1 C1          0.1000   -0.1800   -0.3920 c3        1 S5H     -0.067400
      2 C2          1.5850    0.0900   -0.2810 c3        1 S5H     -0.103400
      3 C3          2.0210    0.2470    1.1700 c3        1 S5H      0.152100
      4 O3          3.4520    0.2900    1.2430 os        1 S5H     -0.455900
      5 C4          1.5950   -0.9510    2.0130 c3        1 S5H     -0.076400
      6 C5          0.0960   -1.1590    1.8920 c3        1 S5H     -0.053700
      7 C6         -0.3730   -2.2760    2.8080 c3        1 S5H     -0.073400
      8 C7         -1.8830   -2.3770    2.7900 c3        1 S5H     -0.071400
      9 C8         -2.4060   -2.5710    1.3760 c3        1 S5H     -0.048700
     10 C9         -1.8970   -1.4570    0.4440 c3        1 S5H     -0.049700
     11 C10        -0.3540   -1.3910    0.4350 c3        1 S5H     -0.037000
     12 C11        -2.4900   -1.5830   -0.9540 c3        1 S5H     -0.074400
     13 C12        -4.0070   -1.6940   -0.9710 c3        1 S5H     -0.066400
     14 C13        -4.4750   -2.8220   -0.0670 c3        1 S5H     -0.038000
     15 C14        -3.9200   -2.5330    1.3490 c3        1 S5H     -0.060700
     16 C15        -4.7130   -3.4620    2.2560 c3        1 S5H     -0.072400
     17 C16        -6.1000   -3.5370    1.6110 c3        1 S5H     -0.075400
     18 C17        -5.9960   -2.8740    0.2260 c3        1 S5H     -0.165700
     19 C18        -4.0380   -4.1650   -0.6280 c3        1 S5H     -0.090100
     20 C19         0.2520   -2.6520   -0.1590 c3        1 S5H     -0.085100
     21 C20        -6.7910   -3.5940   -0.8300 c         1 S5H      0.578100
     22 O20        -7.0480   -4.8020   -0.7790 o         1 S5H     -0.539100
     23 C21        -7.2900   -2.7350   -1.9500 c3        1 S5H     -0.205100
     24 CH1         4.0760    1.5020    1.0410 c         1 S5H      0.639100
     25 OH1         3.3560    2.4640    0.7610 o         1 S5H     -0.576000
     26 CH2         5.5610    1.4110    1.1870 c3        1 S5H     -0.108400
     27 CH3         6.0800    2.3400    2.2570 c3        1 S5H     -0.201400
     28 CH4         7.6220    2.4070    2.2120 c         1 S5H      0.913600
     29 OH4         8.2020    2.1630    1.1150 o         1 S5H     -0.843300
     30 OH5         8.2170    2.7150    3.2810 o         1 S5H     -0.843300
     31 H11        -0.4680    0.7250   -0.0530 hc        1 S5H      0.037200
     32 H12        -0.1490   -0.3540   -1.4720 hc        1 S5H      0.037200
     33 H21         2.1680   -0.7420   -0.7540 hc        1 S5H      0.056700
     34 H22         1.8390    1.0350   -0.8310 hc        1 S5H      0.056700
     35 H3          1.5930    1.1980    1.5960 h1        1 S5H      0.064700
     36 H41         1.8650   -0.7600    3.0840 hc        1 S5H      0.054200
     37 H42         2.1570   -1.8630    1.6880 hc        1 S5H      0.054200
     38 H5         -0.4030   -0.2040    2.2360 hc        1 S5H      0.045700
     39 H61         0.0840   -3.2490    2.4910 hc        1 S5H      0.043200
     40 H62        -0.0250   -2.0690    3.8540 hc        1 S5H      0.043200
     41 H71        -2.3270   -1.4460    3.2300 hc        1 S5H      0.036700
     42 H72        -2.2150   -3.2400    3.4260 hc        1 S5H      0.036700
     43 H8         -2.0480   -3.5690    1.0030 hc        1 S5H      0.056700
     44 H9         -2.2610   -0.4770    0.8710 hc        1 S5H      0.044700
     45 H111       -2.2020   -0.6780   -1.5530 hc        1 S5H      0.045200
     46 H112       -2.0520   -2.4770   -1.4700 hc        1 S5H      0.045200
     47 H121       -4.3460   -1.8760   -2.0240 hc        1 S5H      0.036700
     48 H122       -4.4600   -0.7260   -0.6310 hc        1 S5H      0.036700
     49 H14        -4.2270   -1.4780    1.6180 hc        1 S5H      0.045700
     50 H151       -4.7670   -3.0620    3.2980 hc        1 S5H      0.045700
     51 H152       -4.2400   -4.4740    2.3030 hc        1 S5H      0.045700
     52 H161       -6.8570   -3.0020    2.2340 hc        1 S5H      0.052200
     53 H162       -6.4260   -4.6030    1.5070 hc        1 S5H      0.052200
     54 H17        -6.3800   -1.8190    0.2900 hc        1 S5H      0.060700
     55 H181       -4.4030   -4.9950    0.0260 hc        1 S5H      0.042033
     56 H182       -2.9280   -4.2340   -0.7080 hc        1 S5H      0.042033
     57 H183       -4.4720   -4.3070   -1.6490 hc        1 S5H      0.042033
     58 H191        1.3640   -2.6370   -0.0570 hc        1 S5H      0.036033
     59 H192        0.0080   -2.7230   -1.2470 hc        1 S5H      0.036033
     60 H193       -0.1320   -3.5680    0.3490 hc        1 S5H      0.036033
     61 H211       -7.6950   -3.3610   -2.7810 hc        1 S5H      0.062033
     62 H212       -8.1040   -2.0700   -1.5700 hc        1 S5H      0.062033
     63 H213       -6.4610   -2.0960   -2.3410 hc        1 S5H      0.062033
     64 HH21        5.8580    0.3550    1.4180 hc        1 S5H      0.087200
     65 HH22        6.0310    1.6930    0.2030 hc        1 S5H      0.087200
     66 HH31        5.7590    1.9950    3.2700 hc        1 S5H      0.036700
     67 HH32        5.6860    3.3740    2.0980 hc        1 S5H      0.036700
@<TRIPOS>BOND
     1    1    2 1   
     2    1   11 1   
     3    1   31 1   
     4    1   32 1   
     5    2    3 1   
     6    2   33 1   
     7    2   34 1   
     8    3    4 1   
     9    3    5 1   
    10    3   35 1   
    11    4   24 1   
    12    5    6 1   
    13    5   36 1   
    14    5   37 1   
    15    6    7 1   
    16    6   11 1   
    17    6   38 1   
    18    7    8 1   
    19    7   39 1   
    20    7   40 1   
    21    8    9 1   
    22    8   41 1   
    23    8   42 1   
    24    9   10 1   
    25    9   15 1   
    26    9   43 1   
    27   10   11 1   
    28   10   12 1   
    29   10   44 1   
    30   11   20 1   
    31   12   13 1   
    32   12   45 1   
    33   12   46 1   
    34   13   14 1   
    35   13   47 1   
    36   13   48 1   
    37   14   15 1   
    38   14   18 1   
    39   14   19 1   
    40   15   16 1   
    41   15   49 1   
    42   16   17 1   
    43   16   50 1   
    44   16   51 1   
    45   17   18 1   
    46   17   52 1   
    47   17   53 1   
    48   18   21 1   
    49   18   54 1   
    50   19   55 1   
    51   19   56 1   
    52   19   57 1   
    53   20   58 1   
    54   20   59 1   
    55   20   60 1   
    56   21   22 2   
    57   21   23 1   
    58   23   61 1   
    59   23   62 1   
    60   23   63 1   
    61   24   25 2   
    62   24   26 1   
    63   26   27 1   
    64   26   64 1   
    65   26   65 1   
    66   27   28 1   
    67   27   66 1   
    68   27   67 1   
    69   28   29 1   
    70   28   30 1   
@<TRIPOS>SUBSTRUCTURE
     1 S5H         1 TEMP              0 ****  ****    0 ROOT
