@<TRIPOS>MOLECULE
molecule
   33    34     1     0     0
SMALL
bcc


@<TRIPOS>ATOM
      1 O4           0.0000     0.0000     0.0000 o          1 S5P      -0.667500
      2 C4           1.2200     0.0000     0.0000 c          1 S5P       0.720700
      3 C5           1.9260     0.0000     1.2120 cc         1 S5P      -0.386200
      4 C6           3.2930    -0.0010     1.1840 cd         1 S5P       0.259200
      5 S22          4.2130    -0.0010     2.6880 sh         1 S5P      -0.272400
      6 N3           1.8970    -0.0060    -1.1650 ns         1 S5P      -0.562500
      7 C2           3.2420    -0.0070    -1.1750 c          1 S5P       0.796500
      8 O2           3.8330    -0.0130    -2.2370 o          1 S5P      -0.570500
      9 N1           3.9430    -0.0010    -0.0260 n          1 S5P      -0.331000
     10 C1'          5.4080    -0.0020    -0.0680 c3         1 S5P       0.297500
     11 O4'          5.8920     1.0180    -0.9670 os         1 S5P      -0.344600
     12 C2'          5.9370    -1.3170    -0.6940 c3         1 S5P       0.079100
     13 O2'          6.0630    -2.3390     0.2960 oh         1 S5P      -0.594800
     14 C3'          7.3260    -0.8880    -1.2250 c3         1 S5P       0.089100
     15 O3'          8.3500    -1.2520    -0.2970 oh         1 S5P      -0.595800
     16 C4'          7.2270     0.6450    -1.3460 c3         1 S5P       0.117100
     17 C5'          7.4960     1.0730    -2.7900 c3         1 S5P       0.223400
     18 O5'          7.5020     2.4990    -2.8720 os         1 S5P      -0.561200
     19 P            7.7560     3.2970    -4.2470 p5         1 S5P       1.173900
     20 O3P          7.8210     4.8770    -3.9460 o          1 S5P      -0.905833
     21 O1P          9.0350     2.8550    -4.8450 o          1 S5P      -0.905833
     22 O2P          6.5510     2.9960    -5.2730 o          1 S5P      -0.905833
     23 HN3          1.3950    -0.0110    -2.0300 hn         1 S5P       0.360500
     24 H1'          5.8230     0.1390     0.9230 h2         1 S5P       0.094700
     25 H2'          5.2980    -1.6360    -1.5090 h1         1 S5P       0.073700
     26 HO2'         5.8370    -3.1730    -0.0820 ho         1 S5P       0.389000
     27 H3'          7.5120    -1.3310    -2.1960 h1         1 S5P       0.059700
     28 HO3'         9.0080    -1.7630    -0.7400 ho         1 S5P       0.393000
     29 H4'          7.9410     1.1130    -0.6790 h1         1 S5P       0.072700
     30 H5'          6.7210     0.6770    -3.4340 h1         1 S5P       0.025200
     31 H5'A         8.4590     0.6890    -3.1060 h1         1 S5P       0.025200
     32 H12          3.4840     0.5480     3.6520 hs         1 S5P       0.196800
     33 H5           1.4030    -0.1820     2.1440 ha         1 S5P       0.159000
@<TRIPOS>BOND
     1     1     2 2
     2     2     6 1
     3     2     3 1
     4     3     4 2
     5     3    33 1
     6     4     9 1
     7     4     5 1
     8     5    32 1
     9     6     7 1
    10     6    23 1
    11     7     8 2
    12     7     9 1
    13     9    10 1
    14    10    12 1
    15    10    11 1
    16    10    24 1
    17    11    16 1
    18    12    14 1
    19    12    25 1
    20    13    12 1
    21    13    26 1
    22    14    16 1
    23    14    15 1
    24    14    27 1
    25    15    28 1
    26    16    29 1
    27    17    16 1
    28    17    18 1
    29    17    30 1
    30    17    31 1
    31    18    19 1
    32    19    22 1
    33    19    20 1
    34    21    19 1
@<TRIPOS>SUBSTRUCTURE
     1 S5P         1 TEMP              0 ****  ****    0 ROOT
