@<TRIPOS>MOLECULE
S5P
   33    34     1     0     0
SMALL
bcc


@<TRIPOS>ATOM
      1 O4          0.0900    1.0730   -0.0790 o         1 S5P     -0.691500
      2 C4          1.2750    0.6760   -0.0130 c         1 S5P      0.732700
      3 C5          2.0600    0.6110    1.2110 cc        1 S5P     -0.421200
      4 C6          3.3650    0.1830    1.1900 cd        1 S5P      0.257200
      5 S22         4.2590    0.1660    2.6660 sh        1 S5P     -0.205400
      6 N3          1.9200    0.2400   -1.1720 n         1 S5P     -0.594500
      7 C2          3.2580   -0.2240   -1.1840 c         1 S5P      0.810500
      8 O2          3.7130   -0.6180   -2.2740 o         1 S5P     -0.604500
      9 N1          3.9790   -0.2850    0.0420 n         1 S5P     -0.329000
     10 C1'         5.4480   -0.5440    0.0550 c3        1 S5P      0.287500
     11 O4'         6.1390    0.6110   -0.3770 os        1 S5P     -0.413600
     12 C2'         5.9290   -1.7710   -0.7560 c3        1 S5P      0.032100
     13 O2'         6.2310   -2.8100    0.1420 oh        1 S5P     -0.653800
     14 C3'         7.2310   -1.2600   -1.5210 c3        1 S5P      0.362800
     15 O3'         8.3180   -1.7690   -0.9820 o         1 S5P     -0.871500
     16 C4'         7.1080    0.2970   -1.4030 c3        1 S5P      0.048100
     17 C5'         6.6980    0.9630   -2.7190 c3        1 S5P      0.167400
     18 O5'         6.8610    2.3500   -2.6710 os        1 S5P     -0.587200
     19 P           7.9120    3.0400   -3.7340 p5        1 S5P      1.428800
     20 O3P         7.7340    4.5060   -3.7020 o         1 S5P     -0.848500
     21 O1P         9.2950    2.6390   -2.9570 oh        1 S5P     -0.784400
     22 O2P         7.9190    2.2210   -4.9680 o         1 S5P     -0.848500
     23 HN3         1.4670    0.3190   -2.0550 hn        1 S5P      0.335500
     24 H1'         5.7150   -0.6970    1.1510 h2        1 S5P      0.060700
     25 H2'         5.1560   -2.1570   -1.4630 h1        1 S5P      0.059700
     26 HO2'        7.2100   -2.8430    0.2060 ho        1 S5P      0.437000
     27 H3'         7.0770   -1.5390   -2.6090 h1        1 S5P     -0.042300
     28 HO3'        9.4340    1.7000   -2.9230 ho        1 S5P      0.424000
     29 H4'         8.0660    0.7380   -1.0160 h1        1 S5P      0.070700
     30 H5'         5.6080    0.7420   -2.9050 h1        1 S5P      0.038200
     31 H5'A        7.3140    0.5310   -3.5580 h1        1 S5P      0.038200
     32 H12         3.3160    0.6420    3.4570 hs        1 S5P      0.154800
     33 H5          1.5560    0.9370    2.1250 ha        1 S5P      0.150000
@<TRIPOS>BOND
     1    1    2 2   
     2    2    3 1   
     3    2    6 1   
     4    3    4 2   
     5    3   33 1   
     6    4    5 1   
     7    4    9 1   
     8    5   32 1   
     9    6    7 1   
    10    6   23 1   
    11    7    8 2   
    12    7    9 1   
    13    9   10 1   
    14   10   11 1   
    15   10   12 1   
    16   10   24 1   
    17   11   16 1   
    18   12   13 1   
    19   12   14 1   
    20   12   25 1   
    21   13   26 1   
    22   14   15 1   
    23   14   16 1   
    24   14   27 1   
    25   16   17 1   
    26   16   29 1   
    27   17   18 1   
    28   17   30 1   
    29   17   31 1   
    30   18   19 1   
    31   19   20 1   
    32   19   21 1   
    33   19   22 1   
    34   21   28 1   
@<TRIPOS>SUBSTRUCTURE
     1 S5P         1 TEMP              0 ****  ****    0 ROOT
