@<TRIPOS>MOLECULE
molecule
    9     8     1     0     0
SMALL
bcc


@<TRIPOS>ATOM
      1 S1           0.0000     0.0000     0.0000 sh         1 S5S      -0.247200
      2 S2           2.0610     0.0000     0.0000 s6         1 S5S      -0.578100
      3 S3           2.0600     0.0000     2.0600 ss         1 S5S       0.106100
      4 S4           0.0630     0.0000     2.5210 sh         1 S5S      -0.171800
      5 S5           4.1200     0.0360    -0.0000 sh         1 S5S      -0.247200
      6 HS1         -0.4430    -1.1420    -0.5130 hs         1 S5S       0.272800
      7 HS5          4.5750    -0.6890    -1.0140 hs         1 S5S       0.272800
      8 HS2          2.5030    -1.0840    -0.6260 hs         1 S5S       0.383800
      9 HS4         -0.0870     0.0000     3.8400 hs         1 S5S       0.207800
@<TRIPOS>BOND
     1     1     2 1
     2     1     6 1
     3     3     2 1
     4     2     5 1
     5     4     3 1
     6     5     7 1
     7     2     8 1
     8     4     9 1
@<TRIPOS>SUBSTRUCTURE
     1 S5S         1 TEMP              0 ****  ****    0 ROOT
