@<TRIPOS>MOLECULE
S5S
    9     8     1     0     0
SMALL
bcc


@<TRIPOS>ATOM
      1 S1          0.3260   -0.1490    0.4710 sh        1 S5S     -0.230700
      2 S2          2.3260   -0.8740    0.1910 s6        1 S5S     -0.856100
      3 S3          1.9440   -1.1010    2.3390 ss        1 S5S     -0.033900
      4 S4         -0.0030   -0.4240    2.6790 sh        1 S5S      0.204200
      5 S5          3.9650   -0.2250   -0.9890 sh        1 S5S     -0.230700
      6 HS1        -0.4370    0.1480   -0.5740 hs        1 S5S      0.265300
      7 HS5         4.2210    0.9000   -0.3340 hs        1 S5S      0.265300
      8 HS2         2.2400   -2.0800   -0.3400 hs        1 S5S      0.451800
      9 HS4         0.2590    0.8060    3.0840 hs        1 S5S      0.164800
@<TRIPOS>BOND
     1    1    2 1   
     2    1    6 1   
     3    2    3 1   
     4    2    5 1   
     5    2    8 1   
     6    3    4 1   
     7    4    9 1   
     8    5    7 1   
@<TRIPOS>SUBSTRUCTURE
     1 S5S         1 TEMP              0 ****  ****    0 ROOT
