@<TRIPOS>MOLECULE
molecule
   28    29     1     0     0
SMALL
bcc


@<TRIPOS>ATOM
      1 C10          0.0000     0.0000     0.0000 ca         1 S5Z      -0.131500
      2 C13          1.3680    -0.0110     2.4120 ca         1 S5Z      -0.131000
      3 C15          5.6350     0.0010     0.0160 ca         1 S5Z      -0.067300
      4 O01          8.4170     0.1020     0.1950 o          1 S5Z      -0.824300
      5 O03          8.4730    -0.1570     2.3990 o          1 S5Z      -0.824300
      6 C04          6.3290    -0.0150     1.2300 ca         1 S5Z      -0.074600
      7 C05          5.6240    -0.0270     2.4360 ca         1 S5Z      -0.098000
      8 C06          4.2470    -0.0220     2.4280 ca         1 S5Z      -0.137000
      9 C07          3.5570    -0.0060     1.2160 cp         1 S5Z      -0.074000
     10 C08          2.0740     0.0000     1.2090 cp         1 S5Z       0.004000
     11 C09          1.3800     0.0000     0.0000 ca         1 S5Z      -0.131000
     12 C11         -0.6950    -0.0010     1.1960 ca         1 S5Z      -0.154000
     13 C12         -0.0120    -0.0060     2.3990 ca         1 S5Z      -0.131500
     14 C14          4.2590     0.0060     0.0120 ca         1 S5Z      -0.121000
     15 S17          6.8780     1.7240    -1.6780 sh         1 S5Z      -0.385900
     16 H1          -0.5400     0.0020    -0.9390 ha         1 S5Z       0.117000
     17 H2           1.9010    -0.0160     3.3540 ha         1 S5Z       0.135000
     18 H4           6.1610    -0.0630     3.3760 ha         1 S5Z       0.159000
     19 H5           3.7000    -0.0340     3.3630 ha         1 S5Z       0.112000
     20 H6           1.9220     0.0050    -0.9380 ha         1 S5Z       0.135000
     21 H7          -1.7780     0.0010     1.1900 ha         1 S5Z       0.114000
     22 H8          -0.5620    -0.0110     3.3330 ha         1 S5Z       0.117000
     23 H9           3.8370    -0.0010    -0.9860 ha         1 S5Z       0.116000
     24 H10          7.2800    -0.5950    -1.1970 h1         1 S5Z       0.070200
     25 H11          5.7630    -0.3660    -2.0770 h1         1 S5Z       0.070200
     26 H12          6.9850     1.8620    -2.9940 hs         1 S5Z       0.159800
     27 C02          7.8040    -0.0190     1.2360 c          1 S5Z       0.875200
     28 C16          6.3940     0.0210    -1.2860 c3         1 S5Z       0.102000
@<TRIPOS>BOND
     1    15    28 1
     2    28     3 1
     3     3    14 ar
     4     3     6 ar
     5    14     9 ar
     6     4    27 1
     7    27     5 1
     8    27     6 1
     9     6     7 ar
    10     9    10 1
    11     9     8 ar
    12    11    10 ar
    13    11     1 ar
    14    10     2 ar
    15     1    12 ar
    16     2    13 ar
    17    12    13 ar
    18     7     8 ar
    19     1    16 1
    20     2    17 1
    21     7    18 1
    22     8    19 1
    23    11    20 1
    24    12    21 1
    25    13    22 1
    26    14    23 1
    27    28    24 1
    28    28    25 1
    29    15    26 1
@<TRIPOS>SUBSTRUCTURE
     1 S5Z         1 TEMP              0 ****  ****    0 ROOT
