@<TRIPOS>MOLECULE
molecule
   26    28     1     0     0
SMALL
bcc


@<TRIPOS>ATOM
      1 C2           0.0000     0.0000     0.0000 cc         1 S60       0.442800
      2 N11         -0.6540     0.0000    -1.2070 nz         1 S60      -0.730600
      3 N3           1.3080     0.0000     0.0000 nd         1 S60      -0.536100
      4 C4           2.0190     0.0000     1.1570 ca         1 S60       0.113400
      5 C10          3.4080     0.0010     1.1490 ca         1 S60       0.003000
      6 C9           4.1050     0.0010     2.3560 ca         1 S60       0.118400
      7 N14          5.4280     0.0010     2.6620 nc         1 S60      -0.595100
      8 C13          5.5800     0.0010     3.9540 cd         1 S60       0.476800
      9 C15          6.9090     0.0010     4.6650 c3         1 S60      -0.110400
     10 N12          4.3700     0.0010     4.5720 na         1 S60      -0.251300
     11 C8           3.4030     0.0010     3.5800 ca         1 S60      -0.086200
     12 C7           2.0210     0.0010     3.5950 ca         1 S60      -0.031000
     13 C5           1.3230     0.0000     2.3910 ca         1 S60      -0.162600
     14 C6          -0.1470     0.0000     2.3570 c          1 S60       0.726100
     15 O16         -0.8020    -0.0000     3.3830 o          1 S60      -0.556500
     16 N1          -0.7450     0.0050     1.1430 ns         1 S60      -0.488400
     17 HN11         0.0160    -0.0200    -1.9500 hn         1 S60       0.474467
     18 HN1A        -1.2130     0.8270    -1.2830 hn         1 S60       0.474467
     19 H10          4.0150     0.0010     0.2510 ha         1 S60       0.178000
     20 H15          6.9870    -0.8840     5.2850 hc         1 S60       0.077033
     21 H15A         6.9870     0.8850     5.2860 hc         1 S60       0.077033
     22 H15B         7.7090     0.0020     3.9340 hc         1 S60       0.077033
     23 HN12         4.2070     0.0010     5.5590 hn         1 S60       0.324700
     24 H7           1.5750     0.0020     4.5820 ha         1 S60       0.170000
     25 HN1         -1.7440     0.0120     1.0840 hn         1 S60       0.340500
     26 H113        -1.2430    -0.8070    -1.2670 hn         1 S60       0.474467
@<TRIPOS>BOND
     1     1     2 1
     2     1     3 2
     3     1    16 1
     4     3     4 1
     5     4     5 ar
     6     4    13 ar
     7     5     6 ar
     8     6     7 1
     9     6    11 ar
    10     7     8 2
    11     8     9 1
    12     8    10 1
    13    10    11 1
    14    11    12 ar
    15    12    13 ar
    16    13    14 1
    17    14    15 2
    18    14    16 1
    19     2    17 1
    20     2    18 1
    21     5    19 1
    22     9    20 1
    23     9    21 1
    24     9    22 1
    25    10    23 1
    26    12    24 1
    27    16    25 1
    28    26     2 1
@<TRIPOS>SUBSTRUCTURE
     1 S60         1 TEMP              0 ****  ****    0 ROOT
