@<TRIPOS>MOLECULE
S60
   26    28     1     0     0
SMALL
bcc


@<TRIPOS>ATOM
      1 C2           0.0000     0.0000     0.0000 cc         1 S60      -0.022200
      2 N11         -0.6540     0.0000    -1.2070 nz         1 S60       0.216400
      3 N3           1.3080     0.0000     0.0000 nd         1 S60      -0.347100
      4 C4           2.0190     0.0000     1.1570 ca         1 S60       0.029400
      5 C10          3.4080     0.0010     1.1490 ca         1 S60       0.064000
      6 C9           4.1050     0.0010     2.3560 ca         1 S60       0.071400
      7 N14          5.4280     0.0010     2.6620 nc         1 S60      -0.499100
      8 C13          5.5800     0.0010     3.9540 cd         1 S60       0.251800
      9 C15          6.9090     0.0010     4.6650 c3         1 S60       0.006600
     10 N12          4.3700     0.0010     4.5720 na         1 S60       0.295700
     11 C8           3.4030     0.0010     3.5800 ca         1 S60      -0.270200
     12 C7           2.0210     0.0010     3.5950 ca         1 S60       0.029000
     13 C5           1.3230     0.0000     2.3910 ca         1 S60      -0.166600
     14 C6          -0.1470     0.0000     2.3570 c          1 S60       0.634100
     15 O16         -0.8020    -0.0000     3.3830 o          1 S60      -0.596500
     16 N1          -0.7450     0.0050     1.1430 ns         1 S60      -0.029400
     17 HN11         0.0160    -0.0200    -1.9500 hn         1 S60       0.214800
     18 HN1A        -1.2130     0.8270    -1.2830 hn         1 S60       0.214800
     19 H10          4.0150     0.0010     0.2510 ha         1 S60       0.135000
     20 H15          6.9870    -0.8840     5.2850 hc         1 S60       0.029700
     21 H15A         6.9870     0.8850     5.2860 hc         1 S60       0.029700
     22 H15B         7.7090     0.0020     3.9340 hc         1 S60       0.029700
     23 HN12         4.2070     0.0010     5.5590 hn         1 S60       0.145700
     24 H7           1.5750     0.0020     4.5820 ha         1 S60       0.133000
     25 HN1         -1.7440     0.0120     1.0840 hn         1 S60       0.184500
     26 H113        -1.2430    -0.8070    -1.2670 hn         1 S60       0.214800
@<TRIPOS>BOND
     1     1     2 1   
     2     1     3 2   
     3     1    16 1   
     4     2    17 1   
     5     2    18 1   
     6     2    26 1   
     7     3     4 1   
     8     4     5 ar  
     9     4    13 ar  
    10     5     6 ar  
    11     5    19 1   
    12     6     7 1   
    13     6    11 ar  
    14     7     8 2   
    15     8     9 1   
    16     8    10 1   
    17     9    20 1   
    18     9    21 1   
    19     9    22 1   
    20    10    11 1   
    21    10    23 1   
    22    11    12 ar  
    23    12    13 ar  
    24    12    24 1   
    25    13    14 1   
    26    14    15 2   
    27    14    16 1   
    28    16    25 1   
@<TRIPOS>SUBSTRUCTURE
     1 S60         1 TEMP              0 ****  ****    0 ROOT
