@<TRIPOS>MOLECULE
S61
   45    47     1     0     0
SMALL
bcc


@<TRIPOS>ATOM
      1 C26          0.0000     0.0000     0.0000 c3         1 S61       0.047200
      2 C25          1.5070     0.0000     0.0000 ca         1 S61      -0.065300
      3 C24          2.1980     0.0000     1.1970 ca         1 S61      -0.111000
      4 C23          3.5800     0.0000     1.1980 ca         1 S61      -0.120000
      5 C22          4.2710    -0.0010    -0.0000 ca         1 S61      -0.115000
      6 C21          3.5810    -0.0020    -1.1970 ca         1 S61      -0.102000
      7 C20          2.1980    -0.0060    -1.1970 ca         1 S61      -0.076300
      8 C16          1.4450    -0.0130    -2.5020 c3         1 S61       0.069000
      9 C17          1.1280    -1.4560    -2.9010 c3         1 S61      -0.149400
     10 C18          0.2650    -1.4580    -4.1370 c          1 S61       0.970600
     11 O27         -0.1500    -0.4160    -4.5860 o          1 S61      -0.891800
     12 O19         -0.0430    -2.6180    -4.7380 o          1 S61      -0.891800
     13 N15          2.2650     0.6130    -3.5430 ns         1 S61      -0.088900
     14 C14          2.2660     1.9530    -3.6840 c          1 S61       0.600300
     15 O28          1.6560     2.6470    -2.8950 o          1 S61      -0.682100
     16 C10          3.0110     2.5800    -4.8020 cc         1 S61      -0.034200
     17 N9           3.0930     3.9300    -5.0580 na         1 S61      -0.192000
     18 C11          3.7320     1.9210    -5.7420 cd         1 S61      -0.356200
     19 C12          4.2940     2.9310    -6.6440 c          1 S61       0.624700
     20 O13          5.0000     2.7230    -7.6130 o          1 S61      -0.684500
     21 N7           3.8840     4.1340    -6.1940 n          1 S61       0.034600
     22 C5           4.1960     5.3730    -6.7650 ca         1 S61      -0.081400
     23 C4           5.5220     5.7320    -6.9670 ca         1 S61      -0.056000
     24 C3           5.8260     6.9560    -7.5310 ca         1 S61      -0.107000
     25 C2           4.8130     7.8240    -7.8930 ca         1 S61      -0.082000
     26 C1           3.4910     7.4720    -7.6940 ca         1 S61      -0.127000
     27 C6           3.1780     6.2470    -7.1350 ca         1 S61       0.095900
     28 F8           1.8870     5.9000    -6.9450 f          1 S61      -0.119900
     29 H261        -0.3610    -0.9300    -0.4220 hc         1 S61       0.015367
     30 H262        -0.3610     0.8310    -0.5940 hc         1 S61       0.015367
     31 H263        -0.3610     0.1000     1.0160 hc         1 S61       0.015367
     32 H24          1.6560     0.0010     2.1350 ha         1 S61       0.096000
     33 H23          4.1220     0.0010     2.1360 ha         1 S61       0.089000
     34 H22          5.3540     0.0010    -0.0000 ha         1 S61       0.091000
     35 H21          4.1230    -0.0050    -2.1350 ha         1 S61       0.104000
     36 H16          0.5210     0.5410    -2.3890 h1         1 S61       0.084700
     37 H171         0.6020    -1.9480    -2.0920 hc         1 S61       0.021700
     38 H172         2.0520    -1.9850    -3.1050 hc         1 S61       0.021700
     39 H15          2.8430     0.0470    -4.1320 hn         1 S61       0.180500
     40 H9           2.6550     4.6500    -4.5190 hn         1 S61       0.332800
     41 H11          3.3720     0.9800    -6.1400 ha         1 S61       0.168000
     42 H4           6.3170     5.0530    -6.6840 ha         1 S61       0.128000
     43 H3           6.8610     7.2360    -7.6890 ha         1 S61       0.106000
     44 H2           5.0560     8.7840    -8.3330 ha         1 S61       0.102000
     45 H1           2.7000     8.1540    -7.9810 ha         1 S61       0.118000
@<TRIPOS>BOND
     1     1     2 1   
     2     1    29 1   
     3     1    30 1   
     4     1    31 1   
     5     2     3 ar  
     6     2     7 ar  
     7     3     4 ar  
     8     3    32 1   
     9     4     5 ar  
    10     4    33 1   
    11     5     6 ar  
    12     5    34 1   
    13     6     7 ar  
    14     6    35 1   
    15     7     8 1   
    16     8     9 1   
    17     8    13 1   
    18     8    36 1   
    19     9    10 1   
    20     9    37 1   
    21     9    38 1   
    22    10    11 1   
    23    10    12 1   
    24    13    14 1   
    25    13    39 1   
    26    14    15 2   
    27    14    16 1   
    28    16    17 1   
    29    16    18 2   
    30    17    21 1   
    31    17    40 1   
    32    18    19 1   
    33    18    41 1   
    34    19    20 2   
    35    19    21 1   
    36    21    22 1   
    37    22    23 ar  
    38    22    27 ar  
    39    23    24 ar  
    40    23    42 1   
    41    24    25 ar  
    42    24    43 1   
    43    25    26 ar  
    44    25    44 1   
    45    26    27 ar  
    46    26    45 1   
    47    27    28 1   
@<TRIPOS>SUBSTRUCTURE
     1 S61         1 TEMP              0 ****  ****    0 ROOT
