@<TRIPOS>MOLECULE
molecule
   20    21     1     0     0
SMALL
bcc


@<TRIPOS>ATOM
      1 C1           0.0000     0.0000     0.0000 ca         1 S62       0.031000
      2 C2           1.4090     0.0000     0.0000 ca         1 S62       0.063400
      3 C3           2.0780     0.0000     1.2300 ca         1 S62      -0.046100
      4 C4           1.3560     0.0000     2.4220 ca         1 S62      -0.157000
      5 C5          -0.0210     0.0000     2.3910 ca         1 S62      -0.028000
      6 C6          -0.6890     0.0050     1.1740 ca         1 S62      -0.258500
      7 S13          3.8080     0.0010     0.9090 ss         1 S62      -0.090100
      8 C14          3.5220     0.0010    -0.7730 cc         1 S62       0.253600
      9 N15          2.2700     0.0020    -1.0360 nd         1 S62      -0.511100
     10 S20          4.7920     0.0020    -1.9950 s6         1 S62       1.273900
     11 O22          4.7030    -1.2470    -2.6670 o          1 S62      -0.703200
     12 O24          4.7020     1.2520    -2.6650 o          1 S62      -0.703200
     13 O26          6.1240     0.0010    -1.2610 o          1 S62      -0.703200
     14 S28         -2.4510     0.0050     1.1500 s6         1 S62       1.334100
     15 O30         -2.8710    -0.5430     2.3920 o          1 S62      -0.719533
     16 O32         -2.9020     1.4590     1.1480 o          1 S62      -0.719533
     17 O34         -2.8350    -0.5340    -0.1080 o          1 S62      -0.719533
     18 H1          -0.3860     0.0220    -1.0120 ha         1 S62       0.161000
     19 H4           1.9220     0.0030     3.3450 ha         1 S62       0.107000
     20 H5          -0.4150     0.0210     3.4000 ha         1 S62       0.135000
@<TRIPOS>BOND
     1     2     1 ar
     2     6     1 ar
     3     1    18 1
     4     3     2 ar
     5     2     9 1
     6     7     3 1
     7     4     3 ar
     8     4     5 ar
     9     4    19 1
    10     5     6 ar
    11     5    20 1
    12     6    14 1
    13     7     8 1
    14     8    10 1
    15     8     9 2
    16    12    10 1
    17    10    11 1
    18    10    13 1
    19    15    14 1
    20    14    17 1
    21    14    16 1
@<TRIPOS>SUBSTRUCTURE
     1 S62         1 TEMP              0 ****  ****    0 ROOT
