@<TRIPOS>MOLECULE
S69
   41    42     1     0     0
SMALL
bcc


@<TRIPOS>ATOM
      1 C1           0.0000     0.0000     0.0000 ca         1 S69      -0.033300
      2 C2          -0.7520     0.0060    -1.3070 c3         1 S69      -0.039100
      3 C3          -0.9970     1.4280    -1.7380 c          1 S69       0.577100
      4 O4          -0.6000     2.3480    -1.0530 o          1 S69      -0.577100
      5 N5          -1.6570     1.6800    -2.8860 ns         1 S69       0.009100
      6 N6          -1.8860     3.0020    -3.2870 n2         1 S69      -0.452300
      7 C7          -2.5220     3.2440    -4.3930 ce         1 S69       0.404800
      8 C8          -2.7610     4.6350    -4.8150 ca         1 S69      -0.196900
      9 C9           1.3820     0.0000     0.0000 ca         1 S69      -0.128000
     10 C10          2.0760     0.0000     1.1970 ca         1 S69      -0.053000
     11 C11          1.3880     0.0000     2.3950 ca         1 S69      -0.209000
     12 C12          0.0010     0.0000     2.3970 ca         1 S69       0.154100
     13 O13         -0.6780     0.0010     3.5740 os         1 S69      -0.308900
     14 C14          0.1010     0.0020     4.7720 c3         1 S69       0.244700
     15 C15         -0.6920    -0.0000     1.1960 ca         1 S69      -0.125000
     16 C16         -3.4500     4.9000    -6.0020 ca         1 S69      -0.019300
     17 C17         -3.9510     3.7610    -6.8520 c3         1 S69       0.056200
     18 C18         -3.6720     6.2020    -6.3930 ca         1 S69      -0.186000
     19 C19         -3.2130     7.2560    -5.6120 ca         1 S69       0.179100
     20 O20         -3.4340     8.5360    -6.0050 oh         1 S69      -0.503100
     21 C21         -2.5270     7.0040    -4.4320 ca         1 S69      -0.250000
     22 C22         -2.3030     5.7010    -4.0260 ca         1 S69       0.209100
     23 O23         -1.6370     5.4530    -2.8680 oh         1 S69      -0.435100
     24 H2          -0.1670    -0.5050    -2.0620 hc         1 S69       0.030200
     25 H2A         -1.7010    -0.5020    -1.1800 hc         1 S69       0.030200
     26 HN5         -1.9840     0.9220    -3.4510 hn         1 S69       0.149500
     27 H7          -2.8760     2.4240    -5.0050 h4         1 S69      -0.033200
     28 H9           1.9230    -0.0000    -0.9390 ha         1 S69       0.105000
     29 H10          3.1600    -0.0000     1.1950 ha         1 S69       0.099000
     30 H11          1.9320     0.0000     3.3320 ha         1 S69       0.118000
     31 H14         -0.5580     0.0030     5.6320 h1         1 S69      -0.003300
     32 H14A         0.7260    -0.8820     4.7970 h1         1 S69      -0.003300
     33 H14B         0.7260     0.8870     4.7950 h1         1 S69      -0.003300
     34 H15         -1.7750    -0.0000     1.1950 ha         1 S69       0.116000
     35 H17         -4.4580     4.1570    -7.7240 hc         1 S69       0.010367
     36 H17A        -3.1130     3.1510    -7.1680 hc         1 S69       0.010367
     37 H17B        -4.6410     3.1560    -6.2760 hc         1 S69       0.010367
     38 H18         -4.2070     6.4060    -7.3130 ha         1 S69       0.120000
     39 HO20        -4.2540     8.8370    -5.6490 ho         1 S69       0.406000
     40 H21         -2.1730     7.8280    -3.8260 ha         1 S69       0.124000
     41 HO23        -0.9850     6.1200    -2.7310 ho         1 S69       0.398000
@<TRIPOS>BOND
     1     1     2 1   
     2     1     9 ar  
     3     1    15 ar  
     4     2     3 1   
     5     2    24 1   
     6     2    25 1   
     7     3     4 2   
     8     3     5 1   
     9     5     6 1   
    10     5    26 1   
    11     6     7 2   
    12     7     8 1   
    13     7    27 1   
    14     8    16 ar  
    15     8    22 ar  
    16     9    10 ar  
    17     9    28 1   
    18    10    11 ar  
    19    10    29 1   
    20    11    12 ar  
    21    11    30 1   
    22    12    13 1   
    23    12    15 ar  
    24    13    14 1   
    25    14    31 1   
    26    14    32 1   
    27    14    33 1   
    28    15    34 1   
    29    16    17 1   
    30    16    18 ar  
    31    17    35 1   
    32    17    36 1   
    33    17    37 1   
    34    18    19 ar  
    35    18    38 1   
    36    19    20 1   
    37    19    21 ar  
    38    20    39 1   
    39    21    22 ar  
    40    21    40 1   
    41    22    23 1   
    42    23    41 1   
@<TRIPOS>SUBSTRUCTURE
     1 S69         1 TEMP              0 ****  ****    0 ROOT
