@<TRIPOS>MOLECULE
molecule
   41    42     1     0     0
SMALL
bcc


@<TRIPOS>ATOM
      1 C1           0.0000     0.0000     0.0000 ca         1 S69      -0.034300
      2 C2          -0.7520     0.0060    -1.3070 c3         1 S69      -0.108100
      3 C3          -0.9970     1.4280    -1.7380 c          1 S69       0.661100
      4 O4          -0.6000     2.3480    -1.0530 o          1 S69      -0.545100
      5 N5          -1.6570     1.6800    -2.8860 ns         1 S69      -0.320900
      6 N6          -1.8860     3.0020    -3.2870 n2         1 S69      -0.336300
      7 C7          -2.5220     3.2440    -4.3930 ce         1 S69       0.006800
      8 C8          -2.7610     4.6350    -4.8150 ca         1 S69      -0.206900
      9 C9           1.3820     0.0000     0.0000 ca         1 S69      -0.147000
     10 C10          2.0760     0.0000     1.1970 ca         1 S69      -0.088000
     11 C11          1.3880     0.0000     2.3950 ca         1 S69      -0.216000
     12 C12          0.0010     0.0000     2.3970 ca         1 S69       0.143100
     13 O13         -0.6780     0.0010     3.5740 os         1 S69      -0.329900
     14 C14          0.1010     0.0020     4.7720 c3         1 S69       0.129700
     15 C15         -0.6920    -0.0000     1.1960 ca         1 S69      -0.140000
     16 C16         -3.4500     4.9000    -6.0020 ca         1 S69       0.024700
     17 C17         -3.9510     3.7610    -6.8520 c3         1 S69      -0.041800
     18 C18         -3.6720     6.2020    -6.3930 ca         1 S69      -0.205000
     19 C19         -3.2130     7.2560    -5.6120 ca         1 S69       0.178100
     20 O20         -3.4340     8.5360    -6.0050 oh         1 S69      -0.519100
     21 C21         -2.5270     7.0040    -4.4320 ca         1 S69      -0.261000
     22 C22         -2.3030     5.7010    -4.0260 ca         1 S69       0.147100
     23 O23         -1.6370     5.4530    -2.8680 oh         1 S69      -0.464100
     24 H2          -0.1670    -0.5050    -2.0620 hc         1 S69       0.069700
     25 H2A         -1.7010    -0.5020    -1.1800 hc         1 S69       0.069700
     26 HN5         -1.9800     0.9220    -3.4540 hn         1 S69       0.304500
     27 H7          -3.2930     3.8840    -3.9820 h4         1 S69       0.237800
     28 H9           1.9230    -0.0000    -0.9390 ha         1 S69       0.131000
     29 H10          3.1600    -0.0000     1.1950 ha         1 S69       0.130000
     30 H11          1.9320     0.0000     3.3320 ha         1 S69       0.133000
     31 H14          0.7260     0.8870     4.7950 h1         1 S69       0.041033
     32 H14A        -0.5580     0.0030     5.6320 h1         1 S69       0.041033
     33 H14B         0.7260    -0.8820     4.7970 h1         1 S69       0.041033
     34 H15         -1.7750    -0.0000     1.1950 ha         1 S69       0.142000
     35 H17         -4.7530     3.2480    -6.3340 hc         1 S69       0.056700
     36 H17A        -3.1410     3.0670    -7.0400 hc         1 S69       0.056700
     37 H17B        -4.3200     4.1480    -7.7940 hc         1 S69       0.056700
     38 H18         -4.2070     6.4060    -7.3130 ha         1 S69       0.152000
     39 HO20        -4.2560     8.8350    -5.6520 ho         1 S69       0.429000
     40 H21         -2.1730     7.8280    -3.8260 ha         1 S69       0.150000
     41 HO23        -0.9780     6.1140    -2.7360 ho         1 S69       0.435000
@<TRIPOS>BOND
     1     1    15 ar
     2     2     1 1
     3     2     3 1
     4     2    24 1
     5     2    25 1
     6     3     4 2
     7     5     3 1
     8     5     6 1
     9     5    26 1
    10     7     6 2
    11     7    27 1
    12     8     7 1
    13     8    22 ar
    14     9     1 ar
    15     9    10 ar
    16     9    28 1
    17    10    11 ar
    18    10    29 1
    19    11    12 ar
    20    11    30 1
    21    12    13 1
    22    13    14 1
    23    14    31 1
    24    14    32 1
    25    14    33 1
    26    15    12 ar
    27    15    34 1
    28    16     8 ar
    29    17    16 1
    30    17    35 1
    31    17    36 1
    32    17    37 1
    33    18    16 ar
    34    18    19 ar
    35    18    38 1
    36    19    21 ar
    37    20    19 1
    38    20    39 1
    39    21    22 ar
    40    21    40 1
    41    22    23 1
    42    23    41 1
@<TRIPOS>SUBSTRUCTURE
     1 S69         1 TEMP              0 ****  ****    0 ROOT
