@<TRIPOS>MOLECULE
S6I
   37    38     1     0     0
SMALL
bcc


@<TRIPOS>ATOM
      1 C1           0.0000     0.0000     0.0000 ca         1 S6I      -0.240500
      2 N1          -1.1230    -1.5800    -1.9530 nz         1 S6I      -0.134500
      3 O1          -2.1620     0.5450    -1.2510 o          1 S6I      -0.498800
      4 S1          -0.8790     0.0020    -1.5270 sy         1 S6I       0.931200
      5 C2           1.3830     0.0000     0.0000 ca         1 S6I       0.024500
      6 O2           0.0050     0.5460    -2.4980 o          1 S6I      -0.498800
      7 C3           2.0760     0.0000     1.1950 ca         1 S6I      -0.143500
      8 C4           1.3810    -0.0020     2.3980 ca         1 S6I       0.040600
      9 C5          -0.0080    -0.0010     2.3950 ca         1 S6I      -0.143500
     10 C6          -0.6940     0.0050     1.1950 ca         1 S6I       0.024500
     11 N7           2.0790    -0.0020     3.6110 ns         1 S6I      -0.053100
     12 C8           3.2610     0.6380     3.7090 c          1 S6I       0.561100
     13 O8           3.6750     1.2960     2.7740 o          1 S6I      -0.679100
     14 N9           3.9840     0.5470     4.8420 ns         1 S6I      -0.177900
     15 C10          5.2690     1.2420     4.9480 c3         1 S6I       0.022700
     16 C11          5.5950     1.5260     6.4250 c3         1 S6I      -0.037900
     17 C12          6.9140     0.7890     6.7350 c3         1 S6I      -0.021400
     18 C13          7.5970     0.6370     5.3520 c3         1 S6I      -0.021400
     19 C14          6.4030     0.3450     4.4110 c3         1 S6I      -0.037900
     20 H10          5.2400     2.1720     4.3920 h1         1 S6I       0.064700
     21 H11          5.7220     2.5910     6.5780 hc         1 S6I       0.022200
     22 H11A         4.8020     1.1460     7.0580 hc         1 S6I       0.022200
     23 HN1         -0.2390    -2.0390    -2.0520 hn         1 S6I       0.311800
     24 H2           2.0780     0.0420    -0.8300 ha         1 S6I       0.131000
     25 H12          7.5320     1.3830     7.3980 hc         1 S6I       0.022200
     26 H12A         6.7120    -0.1840     7.1650 hc         1 S6I       0.022200
     27 H3           3.1570    -0.0700     1.1950 ha         1 S6I       0.147000
     28 H13          8.2910    -0.1960     5.3590 hc         1 S6I       0.022200
     29 H13A         8.0930     1.5570     5.0670 hc         1 S6I       0.022200
     30 H14          6.6490     0.6170     3.3920 hc         1 S6I       0.022200
     31 H14A         6.1190    -0.6990     4.4740 hc         1 S6I       0.022200
     32 H5          -0.5520    -0.0530     3.3300 ha         1 S6I       0.147000
     33 H6          -1.7770     0.0230     1.1920 ha         1 S6I       0.131000
     34 HN7          1.7030    -0.4840     4.4040 hn         1 S6I       0.175500
     35 HN9          3.6330     0.0240     5.6190 hn         1 S6I       0.173500
     36 HN1A        -1.6190    -1.6190    -2.8210 hn         1 S6I       0.311800
     37 H131        -1.6590    -2.0380    -1.2420 hn         1 S6I       0.311800
@<TRIPOS>BOND
     1     1     4 1   
     2     1     5 ar  
     3     1    10 ar  
     4     2     4 1   
     5     2    23 1   
     6     2    36 1   
     7     2    37 1   
     8     3     4 2   
     9     4     6 2   
    10     5     7 ar  
    11     5    24 1   
    12     7     8 ar  
    13     7    27 1   
    14     8     9 ar  
    15     8    11 1   
    16     9    10 ar  
    17     9    32 1   
    18    10    33 1   
    19    11    12 1   
    20    11    34 1   
    21    12    13 2   
    22    12    14 1   
    23    14    15 1   
    24    14    35 1   
    25    15    16 1   
    26    15    19 1   
    27    15    20 1   
    28    16    17 1   
    29    16    21 1   
    30    16    22 1   
    31    17    18 1   
    32    17    25 1   
    33    17    26 1   
    34    18    19 1   
    35    18    28 1   
    36    18    29 1   
    37    19    30 1   
    38    19    31 1   
@<TRIPOS>SUBSTRUCTURE
     1 S6I         1 TEMP              0 ****  ****    0 ROOT
