@<TRIPOS>MOLECULE
molecule
   53    56     1     0     0
SMALL
bcc


@<TRIPOS>ATOM
      1 O1           0.0000     0.0000     0.0000 o          1 S6L      -0.592100
      2 C22          1.2140     0.0000     0.0000 c          1 S6L       0.628100
      3 C23          1.9670     0.0000     1.3040 c3         1 S6L       0.011800
      4 N4           1.0130     0.0000     2.4210 nz         1 S6L      -0.793600
      5 N3           1.8870    -0.0060    -1.1680 ns         1 S6L      -0.416100
      6 C19          1.1880    -0.0980    -2.3790 ca         1 S6L      -0.040400
      7 C18         -0.0500     0.5150    -2.5150 ca         1 S6L      -0.090000
      8 C17         -0.7370     0.4250    -3.7100 ca         1 S6L      -0.163000
      9 C20          1.7380    -0.7980    -3.4460 ca         1 S6L      -0.090000
     10 C21          1.0480    -0.8880    -4.6390 ca         1 S6L      -0.163000
     11 C16         -0.1910    -0.2800    -4.7730 ca         1 S6L       0.163100
     12 O           -0.8690    -0.3680    -5.9480 os         1 S6L      -0.232200
     13 C10         -0.3550    -1.1660    -6.9220 ca         1 S6L       0.076100
     14 C9           0.1210    -0.6030    -8.1020 ca         1 S6L      -0.143000
     15 C8           0.6440    -1.3990    -9.0970 ca         1 S6L      -0.136000
     16 C11         -0.3010    -2.5360    -6.7350 ca         1 S6L      -0.126000
     17 C12          0.2260    -3.3470    -7.7360 ca         1 S6L      -0.019800
     18 C7           0.7000    -2.7780    -8.9290 ca         1 S6L      -0.020200
     19 C13          0.4300    -4.8030    -7.8660 cc         1 S6L      -0.174900
     20 C15          0.0990    -5.8050    -6.9000 cg         1 S6L       0.250500
     21 N2          -0.1710    -6.5870    -6.1210 n1         1 S6L      -0.403800
     22 C14          1.0070    -5.0060    -9.1120 cd         1 S6L       0.291900
     23 N1           1.3630    -6.2290    -9.6350 nv         1 S6L      -0.892600
     24 N            1.1610    -3.8060    -9.7360 na         1 S6L      -0.084400
     25 C6           1.7400    -3.6260   -11.0700 c3         1 S6L       0.097600
     26 C3           3.2310    -3.4400   -10.9490 ca         1 S6L      -0.130300
     27 C2           4.0690    -4.5390   -10.9850 ca         1 S6L      -0.106500
     28 C1           5.4370    -4.3690   -10.8730 ca         1 S6L      -0.124500
     29 C4           3.7610    -2.1710   -10.8070 ca         1 S6L      -0.106500
     30 C5           5.1270    -2.0010   -10.6950 ca         1 S6L      -0.124500
     31 C            5.9660    -3.1000   -10.7260 ca         1 S6L      -0.111000
     32 H231         2.4790    -0.9470     1.4250 hx         1 S6L       0.124700
     33 H232         2.6920     0.8050     1.3020 hx         1 S6L       0.124700
     34 H3           2.8870     0.0180    -1.1690 hn         1 S6L       0.333500
     35 H41N         0.4150     0.7990     2.3490 hn         1 S6L       0.467133
     36 H42N         1.5140     0.0350     3.2870 hn         1 S6L       0.467133
     37 H18         -0.4640     1.0860    -1.6930 ha         1 S6L       0.145000
     38 H20          2.6970    -1.2880    -3.3350 ha         1 S6L       0.145000
     39 H17         -1.6980     0.9130    -3.8200 ha         1 S6L       0.165000
     40 H21          1.4980    -1.3880    -5.4880 ha         1 S6L       0.165000
     41 H9           0.0810     0.4390    -8.3950 ha         1 S6L       0.148000
     42 H11         -0.9560    -2.9580    -5.9820 ha         1 S6L       0.156000
     43 H8           0.5900    -0.7810    -9.9850 ha         1 S6L       0.146000
     44 H11N         1.6800    -6.2950   -10.5820 hn         1 S6L       0.452800
     45 H12N         1.2640    -7.0570    -9.0820 hn         1 S6L       0.452800
     46 H61C         1.5570    -4.5130   -11.6660 h1         1 S6L       0.070200
     47 H62C         1.2830    -2.7690   -11.5490 h1         1 S6L       0.070200
     48 H2           3.6530    -5.5350   -11.0700 ha         1 S6L       0.128000
     49 H4           3.1020    -1.3130   -10.7530 ha         1 S6L       0.128000
     50 H1           6.0940    -5.2300   -10.9010 ha         1 S6L       0.137000
     51 H            7.0380    -2.9660   -10.6370 ha         1 S6L       0.137000
     52 H5           5.5410    -1.0060   -10.5830 ha         1 S6L       0.137000
     53 H43          0.4530    -0.8280     2.3810 hn         1 S6L       0.467133
@<TRIPOS>BOND
     1     1     2 2
     2     2     3 1
     3     2     5 1
     4     3     4 1
     5     5     6 1
     6     6     7 ar
     7     6     9 ar
     8     7     8 ar
     9     8    11 ar
    10     9    10 ar
    11    10    11 ar
    12    11    12 1
    13    12    13 1
    14    13    14 ar
    15    13    16 ar
    16    14    15 ar
    17    15    18 ar
    18    16    17 ar
    19    17    18 ar
    20    17    19 1
    21    18    24 1
    22    19    20 1
    23    19    22 2
    24    20    21 3
    25    22    23 1
    26    22    24 1
    27    24    25 1
    28    25    26 1
    29    26    27 ar
    30    26    29 ar
    31    27    28 ar
    32    28    31 ar
    33    29    30 ar
    34    30    31 ar
    35     3    32 1
    36     3    33 1
    37     5    34 1
    38     4    35 1
    39     4    36 1
    40     7    37 1
    41     9    38 1
    42     8    39 1
    43    10    40 1
    44    14    41 1
    45    16    42 1
    46    15    43 1
    47    23    44 1
    48    23    45 1
    49    25    46 1
    50    25    47 1
    51    27    48 1
    52    29    49 1
    53    28    50 1
    54    31    51 1
    55    30    52 1
    56    53     4 1
@<TRIPOS>SUBSTRUCTURE
     1 S6L         1 TEMP              0 ****  ****    0 ROOT
