@<TRIPOS>MOLECULE
S70
   21    19     1     0     0
SMALL
bcc


@<TRIPOS>ATOM
      1 C1         -0.4070   -0.7550    0.8160 c3        1 S70      0.033000
      2 C2          1.0410   -0.1860    0.8130 c3        1 S70     -0.028000
      3 C3          1.6500   -0.1450    2.2290 c2        1 S70      0.302000
      4 C4          1.9460    1.1430    2.8100 c2        1 S70     -0.805000
      5 O5          1.8980   -0.9580   -0.0240 oh        1 S70     -0.370000
      6 O6          1.8120   -1.2340    2.8340 o         1 S70     -0.481000
      7 O7         -0.7060   -1.3100   -0.4150 os        1 S70     -0.759000
      8 P8          3.7640    2.2320    3.2980 p3        1 S70      2.560000
      9 O9          3.4750    3.5180    2.5840 o         1 S70     -1.235333
     10 O10         4.9750    1.4920    2.8300 o         1 S70     -1.235333
     11 O11         3.6000    2.3050    4.7890 o         1 S70     -1.235333
     12 P12        -2.3630   -1.4140   -0.8750 p5        1 S70      1.567500
     13 O13        -2.8760   -2.6380   -0.1540 o         1 S70     -0.950833
     14 O14        -2.2590   -1.5840   -2.3740 o         1 S70     -0.950833
     15 O15        -2.9830   -0.1160   -0.4220 o         1 S70     -0.950833
     16 H11        -0.4510   -1.5430    1.6230 h1        1 S70      0.047000
     17 H12        -1.1370    0.0650    1.0550 h1        1 S70      0.047000
     18 HC2         1.0290    0.8520    0.3790 h1        1 S70      0.062000
     19 H41         1.7090    1.1680    3.8900 ha        1 S70      0.086000
     20 H42         1.5360    1.9980    2.2500 ha        1 S70      0.086000
     21 HO5         1.3280   -1.5430   -0.5420 ho        1 S70      0.213000
@<TRIPOS>BOND
     1    1    2 1   
     2    1    7 1   
     3    1   16 1   
     4    1   17 1   
     5    2    3 1   
     6    2    5 1   
     7    2   18 1   
     8    3    4 1   
     9    3    6 1   
    10    4   19 1   
    11    4   20 1   
    12    5   21 1   
    13    7   12 1   
    14    8    9 1   
    15    8   10 1   
    16    8   11 1   
    17   12   13 1   
    18   12   14 1   
    19   12   15 1   
@<TRIPOS>SUBSTRUCTURE
     1 S70         1 TEMP              0 ****  ****    0 ROOT
