@<TRIPOS>MOLECULE
molecule
   21    20     1     0     0
SMALL
bcc


@<TRIPOS>ATOM
      1 C1           0.0000     0.0000     0.0000 c3         1 S70       0.232400
      2 C2           1.5220     0.0000     0.0000 c3         1 S70       0.024100
      3 C3           2.1080     0.0000     1.4080 c          1 S70       0.615100
      4 C4           1.7900     1.1890     2.2830 c3         1 S70      -0.326600
      5 O5           1.9740    -1.1510    -0.6970 oh         1 S70      -0.578800
      6 O6           2.7930    -0.9330     1.8250 o          1 S70      -0.547100
      7 O7          -0.4850    -1.1560     0.6760 os         1 S70      -0.552200
      8 P8           2.5090     1.0940     3.9350 p5         1 S70       1.089700
      9 O9           1.8740     2.3790     4.6680 o          1 S70      -0.934500
     10 O10          3.9960     1.0060     3.9380 o          1 S70      -0.934500
     11 O11          1.7250    -0.1530     4.5860 o          1 S70      -0.934500
     12 P12         -2.0830    -1.3580     0.7950 p5         1 S70       1.206900
     13 O13         -2.5160    -2.5990     1.5210 o          1 S70      -0.935167
     14 O14         -2.6030    -1.2340    -0.7320 o          1 S70      -0.935167
     15 O15         -2.5700     0.0310     1.4670 o          1 S70      -0.935167
     16 H11         -0.3600    -0.0040    -1.0220 h1         1 S70       0.021700
     17 H12         -0.3600     0.8890     0.5040 h1         1 S70       0.021700
     18 HC2          1.8710     0.8830    -0.5220 h1         1 S70      -0.025300
     19 H41          0.7130     1.2680     2.3790 hc         1 S70       0.052200
     20 H42          2.1600     2.0840     1.7970 hc         1 S70       0.052200
     21 HO5          2.5220    -0.8880    -1.4180 ho         1 S70       0.323000
@<TRIPOS>BOND
     1     1     2 1
     2     1     7 1
     3     1    16 1
     4     1    17 1
     5     2     3 1
     6     2     5 1
     7     2    18 1
     8     3     4 1
     9     3     6 2
    10     4     8 1
    11     4    19 1
    12     4    20 1
    13     5    21 1
    14     7    12 1
    15     8     9 1
    16     8    10 1
    17     8    11 1
    18    12    13 1
    19    12    14 1
    20    12    15 1
@<TRIPOS>SUBSTRUCTURE
     1 S70         1 TEMP              0 ****  ****    0 ROOT
