@<TRIPOS>MOLECULE
S71
   57    59     1     0     0
SMALL
bcc


@<TRIPOS>ATOM
      1 N22          0.0000     0.0000     0.0000 nv         1 S71      -0.571500
      2 C22          1.3900     0.0000     0.0000 ca         1 S71       0.511200
      3 C23          2.0780     0.0000     1.2080 ca         1 S71      -0.267300
      4 C24          3.4620    -0.0010     1.1940 ca         1 S71       0.008700
      5 C27          4.2460    -0.0010     2.4810 c3         1 S71       0.055200
      6 C25          4.1120    -0.0010    -0.0330 ca         1 S71      -0.247300
      7 N21          2.0460    -0.0070    -1.1500 nb         1 S71      -0.684000
      8 C26          3.3640    -0.0020    -1.1940 ca         1 S71       0.384600
      9 C20          4.0650    -0.0030    -2.5290 c3         1 S71      -0.055700
     10 C17          3.5680    -1.1850    -3.3640 c3         1 S71       0.034600
     11 C18          2.0840    -0.9950    -3.6850 c3         1 S71      -0.122200
     12 N19          1.5790    -2.1840    -4.3830 nz         1 S71       0.091400
     13 C15          4.3550    -1.2580    -4.6470 ca         1 S71      -0.306600
     14 C16          4.3440    -0.2000    -5.5360 ca         1 S71       0.399200
     15 N11          5.0280    -0.2570    -6.6620 nb         1 S71      -0.552000
     16 C12          5.7470    -1.3160    -6.9830 ca         1 S71       0.431200
     17 C14          5.1020    -2.3850    -4.9480 ca         1 S71      -0.066000
     18 C13          5.8060    -2.4100    -6.1440 ca         1 S71      -0.185600
     19 C09          6.6290    -3.6170    -6.5190 c3         1 S71       0.030900
     20 C08          8.0510    -3.4520    -5.9790 c3         1 S71      -0.060700
     21 C06          8.8740    -4.6570    -6.3540 ca         1 S71       0.413600
     22 C05         10.0590    -4.4850    -7.0420 ca         1 S71      -0.283300
     23 C04         10.8140    -5.6000    -7.3840 ca         1 S71       0.005700
     24 C07         12.1120    -5.4490    -8.1350 c3         1 S71       0.057200
     25 N01          8.4560    -5.8620    -6.0160 nb         1 S71      -0.672000
     26 C02          9.1470    -6.9480    -6.3250 ca         1 S71       0.518200
     27 N02          8.6680    -8.1990    -5.9490 nv         1 S71      -0.529500
     28 C03         10.3470    -6.8500    -7.0210 ca         1 S71      -0.300300
     29 H221        -0.5000    -0.5170     0.6960 hn         1 S71       0.278800
     30 H222        -0.5000     0.5590    -0.6630 hn         1 S71       0.278800
     31 H23          1.5460     0.1760     2.1350 ha         1 S71       0.135000
     32 H271         3.6500     0.4470     3.2670 hc         1 S71       0.020700
     33 H272         5.1570     0.5700     2.3490 hc         1 S71       0.020700
     34 H273         4.4940    -1.0200     2.7530 hc         1 S71       0.020700
     35 H25          5.1830     0.1520    -0.0790 ha         1 S71       0.131000
     36 H201         3.8510     0.9230    -3.0500 hc         1 S71       0.046200
     37 H202         5.1340    -0.0920    -2.3760 hc         1 S71       0.046200
     38 H17          3.7020    -2.1030    -2.8050 hc         1 S71       0.041700
     39 H181         1.9600    -0.1240    -4.3170 hx         1 S71       0.117700
     40 H182         1.5310    -0.8540    -2.7640 hx         1 S71       0.117700
     41 H191         1.8590    -2.1510    -5.3430 hn         1 S71       0.216467
     42 H192         0.5800    -2.2040    -4.3270 hn         1 S71       0.216467
     43 H16          3.7650     0.6860    -5.3070 h4         1 S71      -0.012900
     44 H14          5.1300    -3.2300    -4.2710 ha         1 S71       0.121000
     45 H12          6.2960    -1.3270    -7.9170 h4         1 S71       0.001100
     46 H091         6.1810    -4.5060    -6.0920 hc         1 S71       0.033700
     47 H092         6.6610    -3.7100    -7.5980 hc         1 S71       0.033700
     48 H081         8.0180    -3.3580    -4.9000 hc         1 S71       0.024200
     49 H082         8.4980    -2.5620    -6.4050 hc         1 S71       0.024200
     50 H05         10.3140    -3.5130    -7.4470 ha         1 S71       0.121000
     51 H071        12.5720    -4.5040    -7.8750 hc         1 S71       0.014700
     52 H072        12.7790    -6.2600    -7.8690 hc         1 S71       0.014700
     53 H073        11.9180    -5.4760    -9.2010 hc         1 S71       0.014700
     54 H03         10.9100    -7.7400    -7.2720 ha         1 S71       0.125000
     55 H021         9.1840    -9.0230    -6.1840 hn         1 S71       0.271300
     56 H022         7.8110    -8.2740    -5.4370 hn         1 S71       0.271300
     57 H193         1.9450    -3.0070    -3.9480 hn         1 S71       0.216467
@<TRIPOS>BOND
     1     1     2 1   
     2     1    29 1   
     3     1    30 1   
     4     2     3 ar  
     5     2     7 ar  
     6     3     4 ar  
     7     3    31 1   
     8     4     5 1   
     9     4     6 ar  
    10     5    32 1   
    11     5    33 1   
    12     5    34 1   
    13     6     8 ar  
    14     6    35 1   
    15     7     8 ar  
    16     8     9 1   
    17     9    10 1   
    18     9    36 1   
    19     9    37 1   
    20    10    11 1   
    21    10    13 1   
    22    10    38 1   
    23    11    12 1   
    24    11    39 1   
    25    11    40 1   
    26    12    41 1   
    27    12    42 1   
    28    12    57 1   
    29    13    14 ar  
    30    13    17 ar  
    31    14    15 ar  
    32    14    43 1   
    33    15    16 ar  
    34    16    18 ar  
    35    16    45 1   
    36    17    18 ar  
    37    17    44 1   
    38    18    19 1   
    39    19    20 1   
    40    19    46 1   
    41    19    47 1   
    42    20    21 1   
    43    20    48 1   
    44    20    49 1   
    45    21    22 ar  
    46    21    25 ar  
    47    22    23 ar  
    48    22    50 1   
    49    23    24 1   
    50    23    28 ar  
    51    24    51 1   
    52    24    52 1   
    53    24    53 1   
    54    25    26 ar  
    55    26    27 1   
    56    26    28 ar  
    57    27    55 1   
    58    27    56 1   
    59    28    54 1   
@<TRIPOS>SUBSTRUCTURE
     1 S71         1 TEMP              0 ****  ****    0 ROOT
