@<TRIPOS>MOLECULE
molecule
   57    59     1     0     0
SMALL
bcc


@<TRIPOS>ATOM
      1 N22          0.0000     0.0000     0.0000 nv         1 S71      -1.040500
      2 C22          1.3900     0.0000     0.0000 ca         1 S71       0.706200
      3 C23          2.0780     0.0000     1.2080 ca         1 S71      -0.289300
      4 C24          3.4620    -0.0010     1.1940 ca         1 S71       0.003700
      5 C27          4.2460    -0.0010     2.4810 c3         1 S71      -0.056800
      6 C25          4.1120    -0.0010    -0.0330 ca         1 S71      -0.274300
      7 N21          2.0460    -0.0070    -1.1500 nb         1 S71      -0.815000
      8 C26          3.3640    -0.0020    -1.1940 ca         1 S71       0.435600
      9 C20          4.0650    -0.0030    -2.5290 c3         1 S71      -0.108700
     10 C17          3.5680    -1.1850    -3.3640 c3         1 S71      -0.026400
     11 C18          2.0840    -0.9950    -3.6850 c3         1 S71       0.071800
     12 N19          1.5790    -2.1840    -4.3830 nz         1 S71      -0.804600
     13 C15          4.3550    -1.2580    -4.6470 ca         1 S71      -0.287600
     14 C16          4.3440    -0.2000    -5.5360 ca         1 S71       0.413200
     15 N11          5.0280    -0.2570    -6.6620 nb         1 S71      -0.663000
     16 C12          5.7470    -1.3160    -6.9830 ca         1 S71       0.441200
     17 C14          5.1020    -2.3850    -4.9480 ca         1 S71      -0.095000
     18 C13          5.8060    -2.4100    -6.1440 ca         1 S71      -0.189600
     19 C09          6.6290    -3.6170    -6.5190 c3         1 S71      -0.035100
     20 C08          8.0510    -3.4520    -5.9790 c3         1 S71      -0.115700
     21 C06          8.8740    -4.6570    -6.3540 ca         1 S71       0.463600
     22 C05         10.0590    -4.4850    -7.0420 ca         1 S71      -0.305300
     23 C04         10.8140    -5.6000    -7.3840 ca         1 S71       0.003700
     24 C07         12.1120    -5.4490    -8.1350 c3         1 S71      -0.052800
     25 N01          8.4560    -5.8620    -6.0160 nb         1 S71      -0.786000
     26 C02          9.1470    -6.9480    -6.3250 ca         1 S71       0.714200
     27 N02          8.6680    -8.1990    -5.9490 nv         1 S71      -1.012500
     28 C03         10.3470    -6.8500    -7.0210 ca         1 S71      -0.317300
     29 H221        -0.5000    -0.5170     0.6960 hn         1 S71       0.444800
     30 H222        -0.5000     0.5590    -0.6630 hn         1 S71       0.444800
     31 H23          1.5460     0.1760     2.1350 ha         1 S71       0.157000
     32 H271         3.6500     0.4470     3.2670 hc         1 S71       0.059367
     33 H272         5.1570     0.5700     2.3490 hc         1 S71       0.059367
     34 H273         4.4940    -1.0200     2.7530 hc         1 S71       0.059367
     35 H25          5.1830     0.1520    -0.0790 ha         1 S71       0.151000
     36 H201         3.8510     0.9230    -3.0500 hc         1 S71       0.080700
     37 H202         5.1340    -0.0920    -2.3760 hc         1 S71       0.080700
     38 H17          3.7020    -2.1030    -2.8050 hc         1 S71       0.070700
     39 H181         1.9600    -0.1240    -4.3170 hx         1 S71       0.137200
     40 H182         1.5310    -0.8540    -2.7640 hx         1 S71       0.137200
     41 H191         1.8590    -2.1510    -5.3430 hn         1 S71       0.450133
     42 H192         0.5800    -2.2040    -4.3270 hn         1 S71       0.450133
     43 H16          3.7650     0.6860    -5.3070 h4         1 S71       0.025100
     44 H14          5.1300    -3.2300    -4.2710 ha         1 S71       0.146000
     45 H12          6.2960    -1.3270    -7.9170 h4         1 S71       0.047100
     46 H091         6.1810    -4.5060    -6.0920 hc         1 S71       0.068200
     47 H092         6.6610    -3.7100    -7.5980 hc         1 S71       0.068200
     48 H081         8.0180    -3.3580    -4.9000 hc         1 S71       0.058200
     49 H082         8.4980    -2.5620    -6.4050 hc         1 S71       0.058200
     50 H05         10.3140    -3.5130    -7.4470 ha         1 S71       0.138000
     51 H071        12.5720    -4.5040    -7.8750 hc         1 S71       0.052700
     52 H072        12.7790    -6.2600    -7.8690 hc         1 S71       0.052700
     53 H073        11.9180    -5.4760    -9.2010 hc         1 S71       0.052700
     54 H03         10.9100    -7.7400    -7.2720 ha         1 S71       0.142000
     55 H021         9.1840    -9.0230    -6.1840 hn         1 S71       0.440800
     56 H022         7.8110    -8.2740    -5.4370 hn         1 S71       0.440800
     57 H193         1.9450    -3.0070    -3.9480 hn         1 S71       0.450133
@<TRIPOS>BOND
     1     1     2 1
     2     2     3 ar
     3     2     7 ar
     4     3     4 ar
     5     4     5 1
     6     4     6 ar
     7     6     8 ar
     8     7     8 ar
     9     8     9 1
    10     9    10 1
    11    10    11 1
    12    10    13 1
    13    11    12 1
    14    13    14 ar
    15    13    17 ar
    16    14    15 ar
    17    15    16 ar
    18    16    18 ar
    19    17    18 ar
    20    18    19 1
    21    19    20 1
    22    20    21 1
    23    21    22 ar
    24    21    25 ar
    25    22    23 ar
    26    23    24 1
    27    23    28 ar
    28    25    26 ar
    29    26    27 1
    30    26    28 ar
    31     1    29 1
    32     1    30 1
    33     3    31 1
    34     5    32 1
    35     5    33 1
    36     5    34 1
    37     6    35 1
    38     9    36 1
    39     9    37 1
    40    10    38 1
    41    11    39 1
    42    11    40 1
    43    12    41 1
    44    12    42 1
    45    14    43 1
    46    17    44 1
    47    16    45 1
    48    19    46 1
    49    19    47 1
    50    20    48 1
    51    20    49 1
    52    22    50 1
    53    24    51 1
    54    24    52 1
    55    24    53 1
    56    28    54 1
    57    27    55 1
    58    27    56 1
    59    57    12 1
@<TRIPOS>SUBSTRUCTURE
     1 S71         1 TEMP              0 ****  ****    0 ROOT
