@<TRIPOS>MOLECULE
molecule
   74    77     1     0     0
SMALL
bcc


@<TRIPOS>ATOM
      1 C            0.0000     0.0000     0.0000 c3         1 S72      -0.026800
      2 F            3.8540    -9.4940     3.6400 f          1 S72      -0.141900
      3 N            3.4370     0.0000     1.2640 nc         1 S72      -0.333000
      4 O            0.2200    -0.0020     2.8380 o          1 S72      -0.628100
      5 C1           1.4870     0.0000     0.2490 cd         1 S72      -0.104900
      6 N1           3.6810     0.0000     0.0000 nd         1 S72      -0.190800
      7 O1           3.1810    -4.1600     7.6060 o          1 S72      -0.607100
      8 C2           2.1080     0.0000     1.4660 cc         1 S72       0.182800
      9 N2           2.4580     0.0010    -0.6860 na         1 S72       0.067400
     10 O2           6.7500    -3.7550     9.4370 o          1 S72      -0.587100
     11 C3           2.2710     0.0010    -2.1390 c3         1 S72       0.114600
     12 N3           2.1650    -0.0020     3.9100 ns         1 S72      -0.564900
     13 C4           2.2070     1.4220    -2.6370 ca         1 S72      -0.129300
     14 N4           5.3100    -4.7740     7.4950 n          1 S72      -0.468800
     15 C5           3.3650     2.0740    -3.0180 ca         1 S72      -0.103000
     16 N5           8.6520    -3.4540     8.3360 ns         1 S72      -0.591900
     17 C6           3.3060     3.3770    -3.4750 ca         1 S72      -0.128500
     18 C7           2.0890     4.0280    -3.5510 ca         1 S72      -0.112000
     19 C8           0.9310     3.3760    -3.1710 ca         1 S72      -0.128500
     20 C9           0.9900     2.0710    -2.7190 ca         1 S72      -0.103000
     21 C10          1.4340    -0.0010     2.7780 c          1 S72       0.609600
     22 C11          1.4970    -0.0020     5.2140 c3         1 S72       0.116700
     23 C12          2.4260     0.6070     6.2650 c3         1 S72      -0.090400
     24 C13          3.7110    -0.2200     6.3500 c3         1 S72      -0.082900
     25 C14          3.3670    -1.6580     6.7450 c3         1 S72      -0.055700
     26 C15          2.4370    -2.2670     5.6950 c3         1 S72      -0.082900
     27 C16          1.1530    -1.4400     5.6100 c3         1 S72      -0.090400
     28 C17          4.6520    -2.4840     6.8300 c3         1 S72      -0.155400
     29 C18          4.3270    -3.8650     7.3390 c          1 S72       0.677100
     30 C19          4.9950    -6.1170     7.9890 c3         1 S72       0.161300
     31 C20          4.6890    -7.0220     6.8240 ca         1 S72      -0.132300
     32 C21          5.7060    -7.7340     6.2170 ca         1 S72      -0.088000
     33 C22          5.4280    -8.5650     5.1480 ca         1 S72      -0.171000
     34 C23          4.1280    -8.6830     4.6850 ca         1 S72       0.135900
     35 C24          3.1100    -7.9680     5.2930 ca         1 S72      -0.171000
     36 C25          3.3910    -7.1420     6.3650 ca         1 S72      -0.088000
     37 C26          6.6940    -4.4190     7.1730 c3         1 S72       0.027000
     38 C27          7.3660    -3.8530     8.3970 c          1 S72       0.624100
     39 C28          9.3050    -2.9040     9.5270 c3         1 S72       0.103300
     40 H           -0.4780    -0.7070     0.6670 hc         1 S72       0.064033
     41 HA          -0.1940    -0.2850    -1.0270 hc         1 S72       0.064033
     42 HB          -0.3970     0.9920     0.1810 hc         1 S72       0.064033
     43 H3           1.3490    -0.5100    -2.3850 h1         1 S72       0.076700
     44 H3A          3.1030    -0.5090    -2.6100 h1         1 S72       0.076700
     45 HN3          3.1640     0.0480     3.8610 hn         1 S72       0.330500
     46 H5           4.3190     1.5630    -2.9580 ha         1 S72       0.135000
     47 HN5          9.1690    -3.5620     7.4860 hn         1 S72       0.311500
     48 H6           4.2130     3.8880    -3.7730 ha         1 S72       0.135000
     49 H7           2.0430     5.0500    -3.9080 ha         1 S72       0.133000
     50 H8          -0.0230     3.8860    -3.2330 ha         1 S72       0.135000
     51 H9           0.0820     1.5600    -2.4200 ha         1 S72       0.135000
     52 H11          0.5860     0.5830     5.1580 h1         1 S72       0.075700
     53 H12          2.6710     1.6240     5.9840 hc         1 S72       0.053700
     54 H12A         1.9310     0.6020     7.2290 hc         1 S72       0.053700
     55 H13          4.3670     0.2110     7.0960 hc         1 S72       0.048200
     56 H13A         4.2030    -0.2200     5.3850 hc         1 S72       0.048200
     57 H14          2.8690    -1.6560     7.7070 hc         1 S72       0.072700
     58 H15          2.1910    -3.2840     5.9770 hc         1 S72       0.048200
     59 H15A         2.9310    -2.2640     4.7310 hc         1 S72       0.048200
     60 H16          0.6610    -1.4390     6.5750 hc         1 S72       0.053700
     61 H16A         0.4960    -1.8710     4.8640 hc         1 S72       0.053700
     62 H17          5.3460    -2.0030     7.5090 hc         1 S72       0.062200
     63 H17A         5.1000    -2.5570     5.8470 hc         1 S72       0.062200
     64 H19          4.1330    -6.0680     8.6440 h1         1 S72       0.072200
     65 H19A         5.8430    -6.5090     8.5380 h1         1 S72       0.072200
     66 H21          6.7220    -7.6420     6.5800 ha         1 S72       0.144000
     67 H22          6.2250    -9.1230     4.6730 ha         1 S72       0.145500
     68 H24          2.0930    -8.0630     4.9330 ha         1 S72       0.145500
     69 H25          2.5940    -6.5830     6.8410 ha         1 S72       0.144000
     70 H26          6.7020    -3.6790     6.3820 h1         1 S72       0.070200
     71 H26A         7.2270    -5.3030     6.8450 h1         1 S72       0.070200
     72 H28          9.3120    -3.6500    10.3120 h1         1 S72       0.043700
     73 H28A        10.3240    -2.6260     9.2830 h1         1 S72       0.043700
     74 H28B         8.7630    -2.0290     9.8640 h1         1 S72       0.043700
@<TRIPOS>BOND
     1     1     5 1
     2     2    34 1
     3     3     6 2
     4     3     8 1
     5     4    21 2
     6     5     8 2
     7     5     9 1
     8     6     9 1
     9     7    29 2
    10     8    21 1
    11     9    11 1
    12    10    38 2
    13    11    13 1
    14    12    21 1
    15    12    22 1
    16    13    15 ar
    17    13    20 ar
    18    14    29 1
    19    14    30 1
    20    14    37 1
    21    15    17 ar
    22    16    38 1
    23    16    39 1
    24    17    18 ar
    25    18    19 ar
    26    19    20 ar
    27    22    23 1
    28    22    27 1
    29    23    24 1
    30    24    25 1
    31    25    26 1
    32    25    28 1
    33    26    27 1
    34    28    29 1
    35    30    31 1
    36    31    32 ar
    37    31    36 ar
    38    32    33 ar
    39    33    34 ar
    40    34    35 ar
    41    35    36 ar
    42    37    38 1
    43     1    40 1
    44     1    41 1
    45     1    42 1
    46    11    43 1
    47    11    44 1
    48    12    45 1
    49    15    46 1
    50    16    47 1
    51    17    48 1
    52    18    49 1
    53    19    50 1
    54    20    51 1
    55    22    52 1
    56    23    53 1
    57    23    54 1
    58    24    55 1
    59    24    56 1
    60    25    57 1
    61    26    58 1
    62    26    59 1
    63    27    60 1
    64    27    61 1
    65    28    62 1
    66    28    63 1
    67    30    64 1
    68    30    65 1
    69    32    66 1
    70    33    67 1
    71    35    68 1
    72    36    69 1
    73    37    70 1
    74    37    71 1
    75    39    72 1
    76    39    73 1
    77    39    74 1
@<TRIPOS>SUBSTRUCTURE
     1 S72         1 TEMP              0 ****  ****    0 ROOT
