@<TRIPOS>MOLECULE
S73
   49    51     1     0     0
SMALL
bcc


@<TRIPOS>ATOM
      1 N            0.0000     0.0000     0.0000 no         1 S73       1.048200
      2 O            2.3410     0.0060     3.5900 oh         1 S73      -0.604800
      3 C1           2.1710     0.0000     1.1990 ca         1 S73      -0.068300
      4 C10          6.2620    -1.4440    -2.3100 c3         1 S73      -0.049400
      5 C12          7.9920    -1.4350    -6.4050 ca         1 S73      -0.118300
      6 C13          9.2530    -0.9650    -6.7190 ca         1 S73      -0.045500
      7 C14         10.1940    -1.8170    -7.2640 ca         1 S73      -0.158000
      8 C15          9.8720    -3.1470    -7.4950 ca         1 S73       0.139100
      9 C16         10.3940    -5.3430    -8.2420 c3         1 S73       0.755700
     10 C17          8.6050    -3.6170    -7.1780 ca         1 S73      -0.158000
     11 C18          7.6700    -2.7610    -6.6290 ca         1 S73      -0.045500
     12 C2           1.4800     0.0000     0.0000 ca         1 S73      -0.400200
     13 C3           2.1690     0.0000    -1.1960 ca         1 S73      -0.102000
     14 C4           3.5530     0.0060     1.2030 ca         1 S73      -0.048000
     15 C5           4.2490     0.0070     0.0100 ca         1 S73      -0.139000
     16 C6           3.5590     0.0010    -1.1950 ca         1 S73       0.046600
     17 C7           5.7240     0.0030    -2.4010 c3         1 S73       0.123500
     18 C8           6.2610     0.5480    -3.7370 c3         1 S73       0.145800
     19 C9           6.5560    -1.7980    -3.7900 c3         1 S73       0.143800
     20 F            9.3030    -5.3750    -9.1170 f          1 S73      -0.196967
     21 F1          10.0290    -5.9160    -7.0200 f          1 S73      -0.196967
     22 F2          11.4580    -6.0630    -8.7960 f          1 S73      -0.196967
     23 N1           4.2590     0.0020    -2.4040 nu         1 S73      -0.419600
     24 N2           7.0790    -0.5230    -4.3450 n3         1 S73      -0.536600
     25 O1          -0.6100    -0.0000    -1.0540 o          1 S73      -0.457000
     26 O2          -0.6100    -0.0060     1.0550 o          1 S73      -0.457000
     27 O3          10.7950    -3.9870    -8.0310 os         1 S73      -0.313900
     28 H1           0.7950    -0.8870     2.5590 h1         1 S73       0.020700
     29 H2           0.7880     0.8820     2.5560 h1         1 S73       0.020700
     30 H3           1.8680     0.0050     4.4050 ho         1 S73       0.399000
     31 H4           7.1710    -1.4770    -1.7220 hc         1 S73       0.033700
     32 H5           5.5080    -2.1070    -1.9020 hc         1 S73       0.033700
     33 H6           7.1430     0.5030    -6.1710 h1         1 S73       0.014200
     34 H7           5.9750    -0.8240    -6.1010 h1         1 S73       0.014200
     35 H8           9.5040     0.0740    -6.5390 ha         1 S73       0.110000
     36 H9          11.1820    -1.4480    -7.5100 ha         1 S73       0.125500
     37 H10          8.3520    -4.6550    -7.3560 ha         1 S73       0.125500
     38 H11          6.6810    -3.1270    -6.3820 ha         1 S73       0.110000
     39 H12          1.6280    -0.0040    -2.1340 ha         1 S73       0.136000
     40 H13          4.0910     0.0100     2.1430 ha         1 S73       0.134000
     41 H14          5.3320     0.0100     0.0140 ha         1 S73       0.122000
     42 H15          6.1040     0.5940    -1.5760 h1         1 S73       0.047700
     43 H16          6.8750     1.4230    -3.5570 h1         1 S73       0.020200
     44 H17          5.4350     0.7980    -4.3910 h1         1 S73       0.020200
     45 H18          5.6470    -2.0910    -4.2990 h1         1 S73       0.020700
     46 H19          7.3070    -2.5770    -3.8530 h1         1 S73       0.020700
     47 H20          3.7610     0.0340    -3.2710 hn         1 S73       0.297800
     48 C            1.4150    -0.0000     2.5020 c3         1 S73       0.266700
     49 C11          6.9680    -0.5030    -5.8100 c3         1 S73       0.215100
@<TRIPOS>BOND
     1     1    12 1   
     2     1    25 1   
     3     1    26 1   
     4     2    30 1   
     5     2    48 1   
     6     3    12 ar  
     7     3    14 ar  
     8     3    48 1   
     9     4    17 1   
    10     4    19 1   
    11     4    31 1   
    12     4    32 1   
    13     5     6 ar  
    14     5    11 ar  
    15     5    49 1   
    16     6     7 ar  
    17     6    35 1   
    18     7     8 ar  
    19     7    36 1   
    20     8    10 ar  
    21     8    27 1   
    22     9    20 1   
    23     9    21 1   
    24     9    22 1   
    25     9    27 1   
    26    10    11 ar  
    27    10    37 1   
    28    11    38 1   
    29    12    13 ar  
    30    13    16 ar  
    31    13    39 1   
    32    14    15 ar  
    33    14    40 1   
    34    15    16 ar  
    35    15    41 1   
    36    16    23 1   
    37    17    18 1   
    38    17    23 1   
    39    17    42 1   
    40    18    24 1   
    41    18    43 1   
    42    18    44 1   
    43    19    24 1   
    44    19    45 1   
    45    19    46 1   
    46    23    47 1   
    47    24    49 1   
    48    28    48 1   
    49    29    48 1   
    50    33    49 1   
    51    34    49 1   
@<TRIPOS>SUBSTRUCTURE
     1 S73         1 TEMP              0 ****  ****    0 ROOT
