@<TRIPOS>MOLECULE
molecule
   49    51     1     0     0
SMALL
bcc


@<TRIPOS>ATOM
      1 N            0.0000     0.0000     0.0000 no         1 S73       0.293200
      2 O            2.3410     0.0060     3.5900 oh         1 S73      -0.624800
      3 C1           2.1710     0.0000     1.1990 ca         1 S73      -0.083300
      4 C10          6.2620    -1.4440    -2.3100 c3         1 S73      -0.105400
      5 C12          7.9920    -1.4350    -6.4050 ca         1 S73      -0.102300
      6 C13          9.2530    -0.9650    -6.7190 ca         1 S73      -0.081500
      7 C14         10.1940    -1.8170    -7.2640 ca         1 S73      -0.168500
      8 C15          9.8720    -3.1470    -7.4950 ca         1 S73       0.126100
      9 C16         10.3940    -5.3430    -8.2420 c3         1 S73       0.795700
     10 C17          8.6050    -3.6170    -7.1780 ca         1 S73      -0.168500
     11 C18          7.6700    -2.7610    -6.6290 ca         1 S73      -0.081500
     12 C2           1.4800     0.0000     0.0000 ca         1 S73      -0.109200
     13 C3           2.1690     0.0000    -1.1960 ca         1 S73      -0.158000
     14 C4           3.5530     0.0060     1.2030 ca         1 S73      -0.064000
     15 C5           4.2490     0.0070     0.0100 ca         1 S73      -0.173000
     16 C6           3.5590     0.0010    -1.1950 ca         1 S73       0.196600
     17 C7           5.7240     0.0030    -2.4010 c3         1 S73       0.227500
     18 C8           6.2610     0.5480    -3.7370 c3         1 S73       0.137800
     19 C9           6.5560    -1.7980    -3.7900 c3         1 S73       0.141800
     20 F            9.3030    -5.3750    -9.1170 f          1 S73      -0.204633
     21 F1          10.0290    -5.9160    -7.0200 f          1 S73      -0.204633
     22 F2          11.4580    -6.0630    -8.7960 f          1 S73      -0.204633
     23 N1           4.2590     0.0020    -2.4040 nu         1 S73      -0.818600
     24 N2           7.0790    -0.5230    -4.3450 n3         1 S73      -0.699600
     25 O1          -0.6100    -0.0000    -1.0540 o          1 S73      -0.212000
     26 O2          -0.6100    -0.0060     1.0550 o          1 S73      -0.212000
     27 O3          10.7950    -3.9870    -8.0310 os         1 S73      -0.339900
     28 H1           0.7950    -0.8870     2.5590 h1         1 S73       0.055700
     29 H2           0.7880     0.8820     2.5560 h1         1 S73       0.055700
     30 H3           1.8680     0.0050     4.4050 ho         1 S73       0.413000
     31 H4           7.1710    -1.4770    -1.7220 hc         1 S73       0.064200
     32 H5           5.5080    -2.1070    -1.9020 hc         1 S73       0.064200
     33 H6           7.1430     0.5030    -6.1710 h1         1 S73       0.042700
     34 H7           5.9750    -0.8240    -6.1010 h1         1 S73       0.042700
     35 H8           9.5040     0.0740    -6.5390 ha         1 S73       0.140000
     36 H9          11.1820    -1.4480    -7.5100 ha         1 S73       0.150000
     37 H10          8.3520    -4.6550    -7.3560 ha         1 S73       0.150000
     38 H11          6.6810    -3.1270    -6.3820 ha         1 S73       0.140000
     39 H12          1.6280    -0.0040    -2.1340 ha         1 S73       0.163000
     40 H13          4.0910     0.0100     2.1430 ha         1 S73       0.170000
     41 H14          5.3320     0.0100     0.0140 ha         1 S73       0.146000
     42 H15          6.1040     0.5940    -1.5760 h1         1 S73       0.069700
     43 H16          6.8750     1.4230    -3.5570 h1         1 S73       0.050700
     44 H17          5.4350     0.7980    -4.3910 h1         1 S73       0.050700
     45 H18          5.6470    -2.0910    -4.2990 h1         1 S73       0.048700
     46 H19          7.3070    -2.5770    -3.8530 h1         1 S73       0.048700
     47 H20          3.7610     0.0340    -3.2710 hn         1 S73       0.443800
     48 C            1.4150    -0.0000     2.5020 c3         1 S73       0.187700
     49 C11          6.9680    -0.5030    -5.8100 c3         1 S73       0.201100
@<TRIPOS>BOND
     1    25     1 1
     2    26     1 1
     3     1    12 1
     4    12    13 ar
     5    12     3 ar
     6    13    16 ar
     7    48     3 1
     8    48     2 1
     9     3    14 ar
    10    23    16 1
    11    23    17 1
    12    16    15 ar
    13     4    17 1
    14     4    19 1
    15    14    15 ar
    16    17    18 1
    17    19    24 1
    18    18    24 1
    19    24    49 1
    20    49     5 1
    21     6     5 ar
    22     6     7 ar
    23     5    11 ar
    24     7     8 ar
    25    11    10 ar
    26     8    10 ar
    27     8    27 1
    28    27     9 1
    29    22     9 1
    30     9    20 1
    31     9    21 1
    32    48    28 1
    33    48    29 1
    34     2    30 1
    35     4    31 1
    36     4    32 1
    37    49    33 1
    38    49    34 1
    39     6    35 1
    40     7    36 1
    41    10    37 1
    42    11    38 1
    43    13    39 1
    44    14    40 1
    45    15    41 1
    46    17    42 1
    47    18    43 1
    48    18    44 1
    49    19    45 1
    50    19    46 1
    51    23    47 1
@<TRIPOS>SUBSTRUCTURE
     1 S73         1 TEMP              0 ****  ****    0 ROOT
