@<TRIPOS>MOLECULE
molecule
   67    71     1     0     0
SMALL
bcc


@<TRIPOS>ATOM
      1 C26          0.0000     0.0000     0.0000 ca         1 S74      -0.131500
      2 C32          2.9660    -4.4480     1.2270 ca         1 S74      -0.131500
      3 C25          1.3820     0.0000     0.0000 ca         1 S74      -0.126750
      4 C27         -0.6910     0.0060     1.1980 ca         1 S74      -0.126750
      5 C31          3.9590    -3.4860     1.1800 ca         1 S74      -0.126750
      6 C33          1.9720    -4.3680     2.1850 ca         1 S74      -0.126750
      7 C24          2.0730     0.0000     1.1970 ca         1 S74      -0.118500
      8 C28          0.0010     0.0110     2.3950 ca         1 S74      -0.118500
      9 C30          3.9590    -2.4460     2.0900 ca         1 S74      -0.118500
     10 C34          1.9760    -3.3310     3.0990 ca         1 S74      -0.118500
     11 C12         11.1690     5.0090     8.1960 ca         1 S74      -0.122000
     12 C14         10.5680     7.3140     7.9340 ca         1 S74      -0.122000
     13 C11          9.9280     4.6290     7.7250 ca         1 S74      -0.133500
     14 C15          9.3240     6.9390     7.4660 ca         1 S74      -0.133500
     15 C23          1.3830    -0.0010     2.3940 ca         1 S74      -0.043800
     16 C29          2.9650    -2.3670     3.0480 ca         1 S74      -0.043800
     17 C13         11.4890     6.3500     8.3030 ca         1 S74      -0.052300
     18 C10          9.0010     5.5940     7.3570 ca         1 S74       0.059100
     19 C18         15.1750     7.2970     8.1790 c          1 S74       0.890600
     20 C3           5.5800     1.3360     4.4390 c          1 S74       0.794100
     21 C1           5.7520     3.6430     7.1050 c3         1 S74      -0.116400
     22 C19          7.7340     3.8810     5.5990 c3         1 S74      -0.116400
     23 C6           5.6380     2.1590     6.7440 c3         1 S74       0.114500
     24 C8           7.6420     2.4000     5.2200 c3         1 S74       0.114500
     25 C21          2.1370     0.0060     3.6990 cx         1 S74      -0.099400
     26 C22          2.9660    -1.2340     4.0420 cx         1 S74      -0.099400
     27 C20          3.6640     0.0650     3.6320 cx         1 S74       0.095700
     28 C4           7.2190     4.0720     7.0280 c3         1 S74       0.126100
     29 C17         13.8220     6.8850     7.6570 c3         1 S74      -0.178400
     30 N5           6.2610     1.9430     5.4310 n          1 S74      -0.506800
     31 N2           4.3590     0.8180     4.6790 ns         1 S74      -0.575900
     32 O36         15.3370     7.4750     9.3630 o          1 S74      -0.851300
     33 O35         16.1980     7.4660     7.3270 o          1 S74      -0.851300
     34 O7           6.0670     1.2550     3.3280 o          1 S74      -0.662100
     35 O9           7.3340     5.4470     7.3950 os         1 S74      -0.360900
     36 H1          -0.5420    -0.0020    -0.9380 ha         1 S74       0.125000
     37 H2           2.9660    -5.2620     0.5120 ha         1 S74       0.125000
     38 H3           1.9240    -0.0020    -0.9380 ha         1 S74       0.127500
     39 H4          -1.7740     0.0100     1.1980 ha         1 S74       0.127500
     40 H5           4.7380    -3.5480     0.4300 ha         1 S74       0.127500
     41 H6           1.1960    -5.1220     2.2240 ha         1 S74       0.127500
     42 H7           3.1560    -0.0040     1.1970 ha         1 S74       0.135000
     43 H8          -0.5410     0.0130     3.3330 ha         1 S74       0.135000
     44 H9           4.7350    -1.6920     2.0510 ha         1 S74       0.135000
     45 H10          1.1970    -3.2680     3.8500 ha         1 S74       0.135000
     46 H11         11.8920     4.2560     8.4850 ha         1 S74       0.143000
     47 H12         10.8210     8.3640     8.0190 ha         1 S74       0.143000
     48 H13          9.6790     3.5780     7.6410 ha         1 S74       0.130500
     49 H14          8.6030     7.6940     7.1780 ha         1 S74       0.130500
     50 H15          5.3840     3.7990     8.1120 hc         1 S74       0.063450
     51 H16          5.1680     4.2300     6.4070 hc         1 S74       0.063450
     52 H17          8.7660     4.2040     5.5410 hc         1 S74       0.063450
     53 H18          7.1280     4.4650     4.9170 hc         1 S74       0.063450
     54 H19          4.5930     1.8760     6.7000 h1         1 S74       0.051200
     55 H20          6.1500     1.5640     7.4910 h1         1 S74       0.051200
     56 H21          8.3130     1.8230     5.8450 h1         1 S74       0.051200
     57 H22          7.9090     2.2750     4.1780 h1         1 S74       0.051200
     58 H23          1.7010     0.5100     4.5530 hc         1 S74       0.086700
     59 H24          3.0210    -1.4640     5.0990 hc         1 S74       0.086700
     60 H25          4.0750     0.0620     2.6290 h1         1 S74       0.132700
     61 H26          7.8070     3.4630     7.7050 h1         1 S74       0.039700
     62 H27         13.2010     6.0180     9.5240 hc         1 S74       0.058200
     63 H28         12.7570     7.7190     9.3280 hc         1 S74       0.058200
     64 H29         13.4610     7.6300     6.9590 hc         1 S74       0.033200
     65 H30         13.9050     5.9290     7.1540 hc         1 S74       0.033200
     66 H31          3.9370     0.9270     5.5800 hn         1 S74       0.314500
     67 C16         12.8410     6.7630     8.8250 c3         1 S74      -0.030100
@<TRIPOS>BOND
     1     4     8 ar
     2     4     1 ar
     3     8    15 ar
     4     1     3 ar
     5    15    25 1
     6    15     7 ar
     7     3     7 ar
     8     9     5 ar
     9     9    16 ar
    10     5     2 ar
    11    25    26 1
    12    25    27 1
    13    26    16 1
    14    26    27 1
    15    16    10 ar
    16     2     6 ar
    17    27    31 1
    18    10     6 ar
    19    31    20 1
    20    20    34 2
    21    20    30 1
    22    24    30 1
    23    24    22 1
    24    30    23 1
    25    22    28 1
    26    23    21 1
    27    21    28 1
    28    28    35 1
    29    35    18 1
    30    18    13 ar
    31    18    14 ar
    32    13    11 ar
    33    14    12 ar
    34    11    17 ar
    35    12    17 ar
    36    17    67 1
    37    67    29 1
    38    29    19 1
    39    19    32 1
    40    19    33 1
    41     1    36 1
    42     2    37 1
    43     3    38 1
    44     4    39 1
    45     5    40 1
    46     6    41 1
    47     7    42 1
    48     8    43 1
    49     9    44 1
    50    10    45 1
    51    11    46 1
    52    12    47 1
    53    13    48 1
    54    14    49 1
    55    21    50 1
    56    21    51 1
    57    22    52 1
    58    22    53 1
    59    23    54 1
    60    23    55 1
    61    24    56 1
    62    24    57 1
    63    25    58 1
    64    26    59 1
    65    27    60 1
    66    28    61 1
    67    67    62 1
    68    67    63 1
    69    29    64 1
    70    29    65 1
    71    31    66 1
@<TRIPOS>SUBSTRUCTURE
     1 S74         1 TEMP              0 ****  ****    0 ROOT
