@<TRIPOS>MOLECULE
molecule
   17    17     1     0     0
SMALL
bcc


@<TRIPOS>ATOM
      1 O2           0.0000     0.0000     0.0000 o          1 S76      -0.656500
      2 C2           1.2160     0.0000     0.0000 c          1 S76       0.821500
      3 N3           1.8780     0.0000     1.1710 ns         1 S76      -0.565500
      4 C4           3.2260    -0.0010     1.1960 c          1 S76       0.724700
      5 O4           3.8190    -0.0020     2.2610 o          1 S76      -0.635500
      6 C5           3.9420    -0.0010    -0.0110 cc         1 S76      -0.439200
      7 N1           1.8790    -0.0060    -1.1710 ns         1 S76      -0.473100
      8 C6           3.2520     0.0000    -1.1920 cd         1 S76       0.336600
      9 N6           3.9260    -0.0000    -2.3870 nu         1 S76      -0.813000
     10 C7           3.1810     0.0000    -3.6470 c3         1 S76       0.205100
     11 H3           1.3660     0.0010     2.0310 hn         1 S76       0.362500
     12 H1           1.3680    -0.0060    -2.0320 hn         1 S76       0.354500
     13 H5           5.0250     0.0010    -0.0070 ha         1 S76       0.174000
     14 H6           4.9270     0.0000    -2.3970 hn         1 S76       0.468800
     15 H71C         2.5600    -0.8860    -3.7000 h1         1 S76       0.045700
     16 H72C         2.5560     0.8830    -3.6980 h1         1 S76       0.045700
     17 H73C         3.8770     0.0020    -4.4780 h1         1 S76       0.045700
@<TRIPOS>BOND
     1     1     2 2
     2     2     3 1
     3     2     7 1
     4     3     4 1
     5     4     5 2
     6     4     6 1
     7     6     8 2
     8     7     8 1
     9     8     9 1
    10     9    10 1
    11     3    11 1
    12     7    12 1
    13     6    13 1
    14     9    14 1
    15    10    15 1
    16    10    16 1
    17    10    17 1
@<TRIPOS>SUBSTRUCTURE
     1 S76         1 TEMP              0 ****  ****    0 ROOT
