@<TRIPOS>MOLECULE
S77
   44    47     1     0     0
SMALL
bcc


@<TRIPOS>ATOM
      1 C18          0.0000     0.0000     0.0000 c3         1 S77      -0.000400
      2 N2           1.4650     0.0000     0.0000 na         1 S77       0.139300
      3 C13          2.2800     0.0000     1.0820 cc         1 S77       0.188400
      4 N5           3.5090     0.0010     0.6430 nd         1 S77      -0.326000
      5 N4           3.5090    -0.0000    -0.6430 nd         1 S77      -0.318000
      6 C4           2.2800    -0.0060    -1.0820 cc         1 S77       0.169800
      7 C3           1.8480    -0.0140    -2.5250 c3         1 S77      -0.044000
      8 C9           2.3990    -1.2640    -3.2180 c3         1 S77      -0.025900
      9 C7           2.0080    -1.2370    -4.6970 c3         1 S77       0.152300
     10 C8           2.3910     1.2310    -3.2300 c3         1 S77      -0.025900
     11 C6           2.0010     1.1860    -4.7090 c3         1 S77       0.152300
     12 N1           2.5530    -0.0270    -5.3260 nh         1 S77      -0.511300
     13 C1           2.3290    -0.0350    -6.6960 ca         1 S77       0.489200
     14 N3           1.0930     0.0380    -7.1600 nb         1 S77      -0.607000
     15 C14          0.8350     0.0330    -8.4550 ca         1 S77       0.412200
     16 C15          1.8530    -0.0470    -9.3850 ca         1 S77      -0.220300
     17 C10          3.1670    -0.1240    -8.9510 ca         1 S77      -0.059000
     18 C2           3.4160    -0.1120    -7.5790 cp         1 S77      -0.118300
     19 C5           4.8040    -0.1860    -7.0630 cp         1 S77      -0.158300
     20 C12          5.6460    -1.2360    -7.4380 ca         1 S77      -0.041000
     21 C17          6.9340    -1.2580    -6.9340 ca         1 S77      -0.244300
     22 C16          7.3440    -0.2470    -6.0800 ca         1 S77       0.567500
     23 F            8.6020    -0.2620    -5.5850 f          1 S77      -0.223200
     24 N6           6.5250     0.7330    -5.7430 nb         1 S77      -0.587000
     25 C11          5.2900     0.7930    -6.2000 ca         1 S77       0.460200
     26 H1          -0.3610     0.8810    -0.5160 h1         1 S77       0.026033
     27 H2          -0.3610     0.0060     1.0210 h1         1 S77       0.026033
     28 H3          -0.3610    -0.8880    -0.5050 h1         1 S77       0.026033
     29 H4           1.9690     0.0000     2.1200 h5         1 S77       0.031100
     30 H5           0.7660    -0.0170    -2.5840 hc         1 S77       0.019700
     31 H6           1.9810    -2.1480    -2.7510 hc         1 S77       0.033950
     32 H7           3.4790    -1.2780    -3.1300 hc         1 S77       0.033950
     33 H8           0.9280    -1.2320    -4.7840 h1         1 S77       0.017200
     34 H9           2.4110    -2.1120    -5.1920 h1         1 S77       0.017200
     35 H10          1.9690     2.1170    -2.7730 hc         1 S77       0.033950
     36 H11          3.4710     1.2520    -3.1430 hc         1 S77       0.033950
     37 H12          2.3980     2.0590    -5.2130 h1         1 S77       0.017200
     38 H13          0.9210     1.1740    -4.7960 h1         1 S77       0.017200
     39 H14         -0.1920     0.0940    -8.7930 h4         1 S77      -0.019900
     40 H15          1.6260    -0.0520   -10.4440 ha         1 S77       0.116000
     41 H16          3.9830    -0.1860    -9.6620 ha         1 S77       0.116000
     42 H17          5.2990    -2.0140    -8.1080 ha         1 S77       0.113000
     43 H18          7.6150    -2.0570    -7.2040 ha         1 S77       0.127000
     44 H19          4.6460     1.6120    -5.9010 h4         1 S77      -0.006900
@<TRIPOS>BOND
     1     1     2 1   
     2     1    26 1   
     3     1    27 1   
     4     1    28 1   
     5     2     3 1   
     6     2     6 1   
     7     3     4 2   
     8     3    29 1   
     9     4     5 1   
    10     5     6 2   
    11     6     7 1   
    12     7     8 1   
    13     7    10 1   
    14     7    30 1   
    15     8     9 1   
    16     8    31 1   
    17     8    32 1   
    18     9    12 1   
    19     9    33 1   
    20     9    34 1   
    21    10    11 1   
    22    10    35 1   
    23    10    36 1   
    24    11    12 1   
    25    11    37 1   
    26    11    38 1   
    27    12    13 1   
    28    13    14 ar  
    29    13    18 ar  
    30    14    15 ar  
    31    15    16 ar  
    32    15    39 1   
    33    16    17 ar  
    34    16    40 1   
    35    17    18 ar  
    36    17    41 1   
    37    18    19 1   
    38    19    20 ar  
    39    19    25 ar  
    40    20    21 ar  
    41    20    42 1   
    42    21    22 ar  
    43    21    43 1   
    44    22    23 1   
    45    22    24 ar  
    46    24    25 ar  
    47    25    44 1   
@<TRIPOS>SUBSTRUCTURE
     1 S77         1 TEMP              0 ****  ****    0 ROOT
