@<TRIPOS>MOLECULE
S79
   44    48     1     0     0
SMALL
bcc


@<TRIPOS>ATOM
      1 N1           0.0000     0.0000     0.0000 nz         1 S79       0.222400
      2 C8           1.3740     0.0000     0.0000 cc         1 S79      -0.044200
      3 N2           1.9970     0.0000     1.1510 nd         1 S79      -0.351100
      4 C4           3.3520    -0.0050     1.2240 ca         1 S79       0.018400
      5 C5           4.0090    -0.0060     2.4520 ca         1 S79       0.023000
      6 C6           5.3910    -0.0120     2.4900 ca         1 S79      -0.278200
      7 N3           6.3120    -0.0150     3.5230 na         1 S79       0.216700
      8 C9           7.5580    -0.0210     2.9590 cc         1 S79       0.383700
      9 N4           8.7440    -0.0260     3.6610 nu         1 S79      -0.422200
     10 C17          8.7290    -0.0230     5.1260 c3         1 S79       0.215100
     11 C18         10.1440    -0.0280     5.6430 ca         1 S79      -0.140300
     12 C20         10.8860     1.1660     5.6850 ca         1 S79      -0.013000
     13 C26         10.3350     2.3830     5.2500 ca         1 S79      -0.123000
     14 C25         11.0830     3.5190     5.3070 ca         1 S79      -0.071000
     15 C24         12.3900     3.4930     5.7890 ca         1 S79      -0.097000
     16 C23         12.9570     2.3330     6.2180 ca         1 S79      -0.070000
     17 C21         12.2160     1.1400     6.1750 ca         1 S79      -0.041000
     18 C22         12.7670    -0.0780     6.6100 ca         1 S79      -0.050000
     19 C27         12.0180    -1.2120     6.5560 ca         1 S79      -0.112000
     20 C19         10.7090    -1.1880     6.0770 ca         1 S79      -0.056000
     21 N5           7.4580    -0.0240     1.6540 nd         1 S79      -0.593100
     22 C1           6.1440    -0.0190     1.2970 ca         1 S79       0.160400
     23 C2           5.4960    -0.0190     0.0670 ca         1 S79       0.022000
     24 C3           4.1050    -0.0120     0.0240 ca         1 S79      -0.163600
     25 C7           3.3760    -0.0120    -1.2510 c          1 S79       0.630100
     26 O1           3.9670    -0.0170    -2.3160 o          1 S79      -0.595500
     27 N6           2.0240    -0.0060    -1.2000 ns         1 S79      -0.027400
     28 HN11        -0.3340    -0.8200    -0.4670 hn         1 S79       0.210800
     29 HN12        -0.3340     0.8150    -0.4760 hn         1 S79       0.210800
     30 H5           3.4420     0.0880     3.3700 ha         1 S79       0.117000
     31 HN3          6.1060    -0.1350     4.4950 hn         1 S79       0.145700
     32 HN4          9.6160    -0.0550     3.1700 hn         1 S79       0.332800
     33 H171         8.2180     0.8650     5.4790 h1         1 S79       0.018700
     34 H172         8.2100    -0.9040     5.4830 h1         1 S79       0.018700
     35 H26          9.3200     2.4170     4.8730 ha         1 S79       0.103000
     36 H25         10.6560     4.4560     4.9710 ha         1 S79       0.104000
     37 H24         12.9630     4.4120     5.8230 ha         1 S79       0.110000
     38 H23         13.9750     2.3290     6.5900 ha         1 S79       0.114000
     39 H22         13.7830    -0.1130     6.9850 ha         1 S79       0.114000
     40 H27         12.4440    -2.1490     6.8960 ha         1 S79       0.112000
     41 H19         10.1350    -2.1060     6.0450 ha         1 S79       0.103000
     42 H2           6.0660    -0.1490    -0.8450 ha         1 S79       0.149000
     43 HN6          1.4960    -0.0050    -2.0510 hn         1 S79       0.182500
     44 H13         -0.3340     0.0050     0.9440 hn         1 S79       0.210800
@<TRIPOS>BOND
     1     1     2 1   
     2     1    28 1   
     3     1    29 1   
     4     1    44 1   
     5     2     3 2   
     6     2    27 1   
     7     3     4 1   
     8     4     5 ar  
     9     4    24 ar  
    10     5     6 ar  
    11     5    30 1   
    12     6     7 1   
    13     6    22 ar  
    14     7     8 1   
    15     7    31 1   
    16     8     9 1   
    17     8    21 2   
    18     9    10 1   
    19     9    32 1   
    20    10    11 1   
    21    10    33 1   
    22    10    34 1   
    23    11    12 ar  
    24    11    20 ar  
    25    12    13 ar  
    26    12    17 ar  
    27    13    14 ar  
    28    13    35 1   
    29    14    15 ar  
    30    14    36 1   
    31    15    16 ar  
    32    15    37 1   
    33    16    17 ar  
    34    16    38 1   
    35    17    18 ar  
    36    18    19 ar  
    37    18    39 1   
    38    19    20 ar  
    39    19    40 1   
    40    20    41 1   
    41    21    22 1   
    42    22    23 ar  
    43    23    24 ar  
    44    23    42 1   
    45    24    25 1   
    46    25    26 2   
    47    25    27 1   
    48    27    43 1   
@<TRIPOS>SUBSTRUCTURE
     1 S79         1 TEMP              0 ****  ****    0 ROOT
