@<TRIPOS>MOLECULE
molecule
   44    48     1     0     0
SMALL
bcc


@<TRIPOS>ATOM
      1 N1           0.0000     0.0000     0.0000 nz         1 S79      -0.727600
      2 C8           1.3740     0.0000     0.0000 cc         1 S79       0.424800
      3 N2           1.9970     0.0000     1.1510 nd         1 S79      -0.538100
      4 C4           3.3520    -0.0050     1.2240 ca         1 S79       0.104400
      5 C5           4.0090    -0.0060     2.4520 ca         1 S79      -0.042000
      6 C6           5.3910    -0.0120     2.4900 ca         1 S79      -0.090200
      7 N3           6.3120    -0.0150     3.5230 na         1 S79      -0.294300
      8 C9           7.5580    -0.0210     2.9590 cc         1 S79       0.718700
      9 N4           8.7440    -0.0260     3.6610 nu         1 S79      -0.848200
     10 C17          8.7290    -0.0230     5.1260 c3         1 S79       0.279100
     11 C18         10.1440    -0.0280     5.6430 ca         1 S79      -0.130300
     12 C20         10.8860     1.1660     5.6850 ca         1 S79      -0.019000
     13 C26         10.3350     2.3830     5.2500 ca         1 S79      -0.139000
     14 C25         11.0830     3.5190     5.3070 ca         1 S79      -0.104000
     15 C24         12.3900     3.4930     5.7890 ca         1 S79      -0.123000
     16 C23         12.9570     2.3330     6.2180 ca         1 S79      -0.103000
     17 C21         12.2160     1.1400     6.1750 ca         1 S79      -0.041000
     18 C22         12.7670    -0.0780     6.6100 ca         1 S79      -0.083000
     19 C27         12.0180    -1.2120     6.5560 ca         1 S79      -0.138000
     20 C19         10.7090    -1.1880     6.0770 ca         1 S79      -0.086000
     21 N5           7.4580    -0.0240     1.6540 nd         1 S79      -0.659100
     22 C1           6.1440    -0.0190     1.2970 ca         1 S79       0.178400
     23 C2           5.4960    -0.0190     0.0670 ca         1 S79      -0.020000
     24 C3           4.1050    -0.0120     0.0240 ca         1 S79      -0.164600
     25 C7           3.3760    -0.0120    -1.2510 c          1 S79       0.723100
     26 O1           3.9670    -0.0170    -2.3160 o          1 S79      -0.556500
     27 N6           2.0240    -0.0060    -1.2000 ns         1 S79      -0.486400
     28 HN11        -0.3340    -0.8200    -0.4670 hn         1 S79       0.471800
     29 HN12        -0.3340     0.8150    -0.4760 hn         1 S79       0.471800
     30 H5           3.4420     0.0880     3.3700 ha         1 S79       0.155000
     31 HN3          6.1060    -0.1350     4.4950 hn         1 S79       0.316700
     32 HN4          9.6160    -0.0550     3.1700 hn         1 S79       0.492800
     33 H171         8.2180     0.8650     5.4790 h1         1 S79       0.048200
     34 H172         8.2100    -0.9040     5.4830 h1         1 S79       0.048200
     35 H26          9.3200     2.4170     4.8730 ha         1 S79       0.129000
     36 H25         10.6560     4.4560     4.9710 ha         1 S79       0.135000
     37 H24         12.9630     4.4120     5.8230 ha         1 S79       0.139000
     38 H23         13.9750     2.3290     6.5900 ha         1 S79       0.143000
     39 H22         13.7830    -0.1130     6.9850 ha         1 S79       0.144000
     40 H27         12.4440    -2.1490     6.8960 ha         1 S79       0.141000
     41 H19         10.1350    -2.1060     6.0450 ha         1 S79       0.131000
     42 H2           6.0660    -0.1490    -0.8450 ha         1 S79       0.187000
     43 HN6          1.4960    -0.0050    -2.0510 hn         1 S79       0.338500
     44 H13         -0.3340     0.0050     0.9440 hn         1 S79       0.471800
@<TRIPOS>BOND
     1    19    18 ar
     2    19    20 ar
     3    18    17 ar
     4    20    11 ar
     5    17    16 ar
     6    17    12 ar
     7    16    15 ar
     8    11    12 ar
     9    11    10 1
    10    12    13 ar
    11    15    14 ar
    12    13    14 ar
    13    10     9 1
    14     9     8 1
    15     8     7 1
    16     8    21 2
    17     7     6 1
    18    21    22 1
    19     6    22 ar
    20     6     5 ar
    21    22    23 ar
    22     5     4 ar
    23    23    24 ar
    24     4    24 ar
    25     4     3 1
    26    24    25 1
    27     3     2 2
    28    25    26 2
    29    25    27 1
    30     2    27 1
    31     2     1 1
    32     1    28 1
    33     1    29 1
    34     5    30 1
    35     7    31 1
    36     9    32 1
    37    10    33 1
    38    10    34 1
    39    13    35 1
    40    14    36 1
    41    15    37 1
    42    16    38 1
    43    18    39 1
    44    19    40 1
    45    20    41 1
    46    23    42 1
    47    27    43 1
    48    44     1 1
@<TRIPOS>SUBSTRUCTURE
     1 S79         1 TEMP              0 ****  ****    0 ROOT
