@<TRIPOS>MOLECULE
molecule
   27    28     1     0     0
SMALL
bcc


@<TRIPOS>ATOM
      1 C1           0.0000     0.0000     0.0000 ca         1 S7B      -0.093600
      2 C16          1.3970     0.0000     0.0000 ca         1 S7B      -0.089000
      3 C15          2.0830     0.0000     1.1950 ca         1 S7B      -0.159000
      4 C14          1.3940     0.0010     2.3980 ca         1 S7B      -0.144000
      5 C12          0.0140     0.0010     2.4110 ca         1 S7B      -0.113300
      6 C13         -0.7270     0.0020     3.7240 c3         1 S7B      -0.042800
      7 C5          -0.6940     0.0060     1.2190 ca         1 S7B       0.123100
      8 O6          -2.0510     0.0070     1.2300 os         1 S7B      -0.302200
      9 C7          -2.6600     1.2040     1.2410 c          1 S7B       0.692100
     10 O11         -2.0020     2.2170     1.2400 o          1 S7B      -0.552000
     11 C8          -4.1640     1.2830     1.2550 cx         1 S7B      -0.160700
     12 C10         -4.7990     2.6760     1.2690 cx         1 S7B      -0.129400
     13 C9          -4.8330     1.8060     2.5280 cx         1 S7B      -0.129400
     14 C2          -0.7410    -0.0010    -1.2750 c          1 S7B       0.885200
     15 O4          -0.0710    -0.0010    -2.4430 o          1 S7B      -0.833300
     16 O3          -1.9560    -0.0010    -1.2710 o          1 S7B      -0.833300
     17 H16          1.9400    -0.0030    -0.9380 ha         1 S7B       0.158000
     18 H15          3.1670     0.0000     1.1950 ha         1 S7B       0.106000
     19 H14          1.9420     0.0010     3.3320 ha         1 S7B       0.106000
     20 H13         -0.0910    -0.4140     4.4970 hc         1 S7B       0.033700
     21 H13A        -1.6240    -0.5980     3.6330 hc         1 S7B       0.033700
     22 H13B        -0.9960     1.0170     3.9860 hc         1 S7B       0.033700
     23 H8          -4.7330     0.5310     0.7200 hc         1 S7B       0.106700
     24 H10         -5.7390     2.7660     0.7380 hc         1 S7B       0.076200
     25 H10A        -4.1040     3.5060     1.2930 hc         1 S7B       0.076200
     26 H9          -5.7930     1.3660     2.7660 hc         1 S7B       0.076200
     27 H9A         -4.1580     2.1050     3.3210 hc         1 S7B       0.076200
@<TRIPOS>BOND
     1     7     1 ar
     2     1     2 ar
     3     1    14 1
     4     3     2 ar
     5     2    17 1
     6     4     3 ar
     7     3    18 1
     8     5     4 ar
     9     4    19 1
    10     6     5 1
    11     5     7 ar
    12     6    20 1
    13     6    21 1
    14     6    22 1
    15     8     7 1
    16     8     9 1
    17    11     9 1
    18     9    10 2
    19    12    11 1
    20    13    11 1
    21    11    23 1
    22    12    13 1
    23    12    24 1
    24    12    25 1
    25    13    26 1
    26    13    27 1
    27    16    14 1
    28    14    15 1
@<TRIPOS>SUBSTRUCTURE
     1 S7B         1 TEMP              0 ****  ****    0 ROOT
