@<TRIPOS>MOLECULE
S7K
   53    55     1     0     0
SMALL
bcc


@<TRIPOS>ATOM
      1 C1           0.0000     0.0000     0.0000 ca         1 S7K      -0.056000
      2 C2           1.3820     0.0000     0.0000 ca         1 S7K      -0.056300
      3 C3           2.0730     0.0000     1.1980 ca         1 S7K      -0.052000
      4 C4           1.3820     0.0010     2.3940 ca         1 S7K      -0.064000
      5 C5          -0.0010     0.0020     2.3940 ca         1 S7K      -0.130000
      6 C6          -0.6920     0.0000     1.1970 ca         1 S7K      -0.182300
      7 N11          4.2840     0.7820    -3.1470 nb         1 S7K      -0.589000
      8 C12          4.9770     0.7540    -4.2670 ca         1 S7K       0.415200
      9 C13          4.5290     1.4190    -5.3930 ca         1 S7K      -0.216300
     10 C14          3.3360     2.1210    -5.3330 ca         1 S7K      -0.047300
     11 C15          2.6340     2.1290    -4.1360 ca         1 S7K      -0.217300
     12 C16          3.1450     1.4410    -3.0520 ca         1 S7K       0.362600
     13 C19          2.1360    -0.0010    -1.3050 c3         1 S7K       0.020900
     14 N21         -4.7810     0.9990     0.2210 nb         1 S7K      -0.661000
     15 C22         -6.0970     1.0000     0.0710 ca         1 S7K       0.491200
     16 N22         -6.6560     0.5220    -1.1080 nv         1 S7K      -0.492500
     17 C23         -6.9250     1.4770     1.0830 ca         1 S7K      -0.260300
     18 C24         -6.3560     1.9510     2.2510 ca         1 S7K       0.005700
     19 C25         -4.9710     1.9310     2.3690 ca         1 S7K      -0.274300
     20 C26         -4.2100     1.4440     1.3250 ca         1 S7K       0.334600
     21 C28         -2.7090     1.4210     1.4470 c3         1 S7K      -0.067700
     22 C29         -2.1990     0.0000     1.1960 c3         1 S7K       0.011800
     23 N29         -2.6890    -0.8890     2.2570 nz         1 S7K       0.060400
     24 H1          -0.5410    -0.0010    -0.9380 ha         1 S7K       0.122000
     25 H3           3.1560    -0.0000     1.1980 ha         1 S7K       0.130000
     26 H4           1.9230     0.0020     3.3320 ha         1 S7K       0.121000
     27 H5          -0.5420     0.0030     3.3330 ha         1 S7K       0.086000
     28 H13          5.1030     1.3920    -6.3110 ha         1 S7K       0.123000
     29 H15          1.6980     2.6670    -4.0530 ha         1 S7K       0.116000
     30 H19          1.5510    -0.5120    -2.0600 hc         1 S7K       0.037700
     31 H19A         3.0830    -0.5110    -1.1750 hc         1 S7K       0.037700
     32 H23         -8.0010     1.4770     0.9570 ha         1 S7K       0.137000
     33 H25         -4.4940     2.2940     3.2710 ha         1 S7K       0.124000
     34 H28         -2.2760     2.0950     0.7170 hc         1 S7K       0.058700
     35 H28A        -2.4230     1.7370     2.4430 hc         1 S7K       0.058700
     36 H29         -2.5600    -0.3490     0.2360 hx         1 S7K       0.105700
     37 HN29        -2.1320    -1.7210     2.2790 hn         1 S7K       0.226133
     38 HN2B        -3.6430    -1.1310     2.0760 hn         1 S7K       0.226133
     39 HN22        -5.8940     0.0180    -1.5170 hn         1 S7K       0.266800
     40 HN23        -7.5730     0.1230    -1.1010 hn         1 S7K       0.266800
     41 C18          2.3910     1.4410    -1.7470 c3         1 S7K      -0.058700
     42 C17          2.8130     2.8610    -6.5370 c3         1 S7K       0.061200
     43 H18          1.4440     1.9520    -1.8780 hc         1 S7K       0.022700
     44 H18A         2.9760     1.9530    -0.9930 hc         1 S7K       0.022700
     45 H293        -2.6440    -0.4150     3.1380 hn         1 S7K       0.226133
     46 C27         -7.2160     2.4760     3.3700 c3         1 S7K       0.055200
     47 H12          5.9090     0.2030    -4.3060 h4         1 S7K      -0.015900
     48 H27         -6.7290     3.3260     3.8320 hc         1 S7K       0.021700
     49 H17          1.8680     2.4290    -6.8440 hc         1 S7K       0.014367
     50 H17A         3.5270     2.7800    -7.3480 hc         1 S7K       0.014367
     51 H17B         2.6680     3.9040    -6.2860 hc         1 S7K       0.014367
     52 H27A        -8.1770     2.7810     2.9740 hc         1 S7K       0.021700
     53 H27B        -7.3610     1.6970     4.1100 hc         1 S7K       0.021700
@<TRIPOS>BOND
     1     1     2 ar  
     2     1     6 ar  
     3     1    24 1   
     4     2     3 ar  
     5     2    13 1   
     6     3     4 ar  
     7     3    25 1   
     8     4     5 ar  
     9     4    26 1   
    10     5     6 ar  
    11     5    27 1   
    12     6    22 1   
    13     7     8 ar  
    14     7    12 ar  
    15     8     9 ar  
    16     8    47 1   
    17     9    10 ar  
    18     9    28 1   
    19    10    11 ar  
    20    10    42 1   
    21    11    12 ar  
    22    11    29 1   
    23    12    41 1   
    24    13    30 1   
    25    13    31 1   
    26    13    41 1   
    27    14    15 ar  
    28    14    20 ar  
    29    15    16 1   
    30    15    17 ar  
    31    16    39 1   
    32    16    40 1   
    33    17    18 ar  
    34    17    32 1   
    35    18    19 ar  
    36    18    46 1   
    37    19    20 ar  
    38    19    33 1   
    39    20    21 1   
    40    21    22 1   
    41    21    34 1   
    42    21    35 1   
    43    22    23 1   
    44    22    36 1   
    45    23    37 1   
    46    23    38 1   
    47    23    45 1   
    48    41    43 1   
    49    41    44 1   
    50    42    49 1   
    51    42    50 1   
    52    42    51 1   
    53    46    48 1   
    54    46    52 1   
    55    46    53 1   
@<TRIPOS>SUBSTRUCTURE
     1 S7K         1 TEMP              0 ****  ****    0 ROOT
