@<TRIPOS>MOLECULE
molecule
   53    55     1     0     0
SMALL
bcc


@<TRIPOS>ATOM
      1 C1           0.0000     0.0000     0.0000 ca         1 S7K      -0.093000
      2 C2           1.3820     0.0000     0.0000 ca         1 S7K      -0.055300
      3 C3           2.0730     0.0000     1.1980 ca         1 S7K      -0.086000
      4 C4           1.3820     0.0010     2.3940 ca         1 S7K      -0.100000
      5 C5          -0.0010     0.0020     2.3940 ca         1 S7K      -0.151000
      6 C6          -0.6920     0.0000     1.1970 ca         1 S7K      -0.171300
      7 N11          4.2840     0.7820    -3.1470 nb         1 S7K      -0.704000
      8 C12          4.9770     0.7540    -4.2670 ca         1 S7K       0.431200
      9 C13          4.5290     1.4190    -5.3930 ca         1 S7K      -0.248300
     10 C14          3.3360     2.1210    -5.3330 ca         1 S7K      -0.038300
     11 C15          2.6340     2.1290    -4.1360 ca         1 S7K      -0.248300
     12 C16          3.1450     1.4410    -3.0520 ca         1 S7K       0.415600
     13 C19          2.1360    -0.0010    -1.3050 c3         1 S7K      -0.039100
     14 N21         -4.7810     0.9990     0.2210 nb         1 S7K      -0.785000
     15 C22         -6.0970     1.0000     0.0710 ca         1 S7K       0.660200
     16 N22         -6.6560     0.5220    -1.1080 nv         1 S7K      -0.917500
     17 C23         -6.9250     1.4770     1.0830 ca         1 S7K      -0.286300
     18 C24         -6.3560     1.9510     2.2510 ca         1 S7K       0.002700
     19 C25         -4.9710     1.9310     2.3690 ca         1 S7K      -0.301300
     20 C26         -4.2100     1.4440     1.3250 ca         1 S7K       0.397600
     21 C28         -2.7090     1.4210     1.4470 c3         1 S7K      -0.133700
     22 C29         -2.1990     0.0000     1.1960 c3         1 S7K       0.173800
     23 N29         -2.6890    -0.8890     2.2570 nz         1 S7K      -0.806600
     24 H1          -0.5410    -0.0010    -0.9380 ha         1 S7K       0.147000
     25 H3           3.1560    -0.0000     1.1980 ha         1 S7K       0.163000
     26 H4           1.9230     0.0020     3.3320 ha         1 S7K       0.154000
     27 H5          -0.5420     0.0030     3.3330 ha         1 S7K       0.108000
     28 H13          5.1030     1.3920    -6.3110 ha         1 S7K       0.147000
     29 H15          1.6980     2.6670    -4.0530 ha         1 S7K       0.137000
     30 H19          1.5510    -0.5120    -2.0600 hc         1 S7K       0.072200
     31 H19A         3.0830    -0.5110    -1.1750 hc         1 S7K       0.072200
     32 H23         -8.0010     1.4770     0.9570 ha         1 S7K       0.160000
     33 H25         -4.4940     2.2940     3.2710 ha         1 S7K       0.142000
     34 H28         -2.2760     2.0950     0.7170 hc         1 S7K       0.096200
     35 H28A        -2.4230     1.7370     2.4430 hc         1 S7K       0.096200
     36 H29         -2.5600    -0.3490     0.2360 hx         1 S7K       0.132700
     37 HN29        -2.1320    -1.7210     2.2790 hn         1 S7K       0.452800
     38 HN2B        -3.6430    -1.1310     2.0760 hn         1 S7K       0.452800
     39 HN22        -5.8940     0.0180    -1.5170 hn         1 S7K       0.422800
     40 HN23        -7.5730     0.1230    -1.1010 hn         1 S7K       0.422800
     41 C18          2.3910     1.4410    -1.7470 c3         1 S7K      -0.115700
     42 C17          2.8130     2.8610    -6.5370 c3         1 S7K      -0.052800
     43 H18          1.4440     1.9520    -1.8780 hc         1 S7K       0.056700
     44 H18A         2.9760     1.9530    -0.9930 hc         1 S7K       0.056700
     45 H293        -2.6440    -0.4150     3.1380 hn         1 S7K       0.452800
     46 C27         -7.2160     2.4760     3.3700 c3         1 S7K      -0.057800
     47 H12          5.9090     0.2030    -4.3060 h4         1 S7K       0.029100
     48 H27         -6.7290     3.3260     3.8320 hc         1 S7K       0.060700
     49 H17          1.8680     2.4290    -6.8440 hc         1 S7K       0.052367
     50 H17A         3.5270     2.7800    -7.3480 hc         1 S7K       0.052367
     51 H17B         2.6680     3.9040    -6.2860 hc         1 S7K       0.052367
     52 H27A        -8.1770     2.7810     2.9740 hc         1 S7K       0.060700
     53 H27B        -7.3610     1.6970     4.1100 hc         1 S7K       0.060700
@<TRIPOS>BOND
     1     1     2 ar
     2     1     6 ar
     3     2     3 ar
     4     2    13 1
     5     3     4 ar
     6     4     5 ar
     7     5     6 ar
     8     6    22 1
     9     7     8 ar
    10     7    12 ar
    11     8     9 ar
    12     9    10 ar
    13    10    11 ar
    14    10    42 1
    15    11    12 ar
    16    12    41 1
    17    41    13 1
    18    14    15 ar
    19    14    20 ar
    20    15    16 1
    21    15    17 ar
    22    17    18 ar
    23    18    19 ar
    24    18    46 1
    25    19    20 ar
    26    20    21 1
    27    21    22 1
    28    22    23 1
    29     1    24 1
    30     3    25 1
    31     4    26 1
    32     5    27 1
    33     8    47 1
    34     9    28 1
    35    11    29 1
    36    42    49 1
    37    42    50 1
    38    42    51 1
    39    41    43 1
    40    41    44 1
    41    13    30 1
    42    13    31 1
    43    17    32 1
    44    19    33 1
    45    46    48 1
    46    46    52 1
    47    46    53 1
    48    21    34 1
    49    21    35 1
    50    22    36 1
    51    23    37 1
    52    23    38 1
    53    16    39 1
    54    16    40 1
    55    45    23 1
@<TRIPOS>SUBSTRUCTURE
     1 S7K         1 TEMP              0 ****  ****    0 ROOT
