@<TRIPOS>MOLECULE
molecule
   66    66     1     0     0
SMALL
bcc


@<TRIPOS>ATOM
      1 C10          0.0000     0.0000     0.0000 c          1 S80       0.692500
      2 O4          -0.6040     0.0070    -1.0520 o          1 S80      -0.624500
      3 N3           1.3330     0.0000     0.0000 n          1 S80      -0.483800
      4 C9           2.0780     0.0000     1.2700 c3         1 S80       0.102000
      5 C8           1.9440    -1.3800     1.9170 c3         1 S80      -0.108400
      6 C7           0.6850    -1.4620     2.7590 c3         1 S80      -0.078400
      7 C6          -0.5990    -1.3960     1.9510 c3         1 S80      -0.090400
      8 C5          -0.7640    -0.0180     1.3070 c3         1 S80       0.046700
      9 N2          -2.1830     0.2430     1.0550 ns         1 S80      -0.555900
     10 C4          -2.6460     1.5060     1.0530 c          1 S80       0.673100
     11 C3          -4.1150     1.7700     0.8470 c3         1 S80      -0.131700
     12 C2          -4.5690     2.8930     1.7820 c3         1 S80      -0.115700
     13 C1          -6.0380     3.1560     1.5750 c          1 S80       0.675100
     14 O1          -6.7790     2.2490     1.2640 o          1 S80      -0.576100
     15 N1          -6.5280     4.4020     1.7340 ns         1 S80      -0.473400
     16 O2          -7.9220     4.6320     1.6370 oh         1 S80      -0.365100
     17 C11         -4.3260     2.4750     3.2340 c3         1 S80      -0.077400
     18 C12         -5.0470     1.1560     3.5120 c3         1 S80      -0.092400
     19 C13         -4.8990     0.7980     4.9920 c3         1 S80       0.141400
     20 O5          -5.5720    -0.4360     5.2530 oh         1 S80      -0.608800
     21 C14         -4.3590     2.1880    -0.6050 c3         1 S80      -0.064400
     22 C15         -5.3320     1.2080    -1.2610 c3         1 S80      -0.083700
     23 C17         -5.6360     1.6680    -2.6890 c3         1 S80      -0.091100
     24 C16         -4.7050    -0.1870    -1.2980 c3         1 S80      -0.091100
     25 O3          -1.8810     2.4330     1.2170 o          1 S80      -0.626100
     26 C18          2.0630     0.0070    -1.2690 c3         1 S80       0.111000
     27 C19          2.3220    -1.4340    -1.7150 c3         1 S80       0.102400
     28 O6           1.0770    -2.1120    -1.8840 os         1 S80      -0.385600
     29 C20          1.3860    -3.4450    -2.2980 c3         1 S80       0.111700
     30 H91          1.6660     0.7520     1.9320 h1         1 S80       0.052700
     31 H92          3.1230     0.2100     1.0770 h1         1 S80       0.052700
     32 H81          2.8060    -1.5610     2.5480 hc         1 S80       0.054200
     33 H82          1.9010    -2.1340     1.1400 hc         1 S80       0.054200
     34 H71          0.6890    -0.6400     3.4650 hc         1 S80       0.044200
     35 H72          0.6980    -2.3960     3.3080 hc         1 S80       0.044200
     36 H61         -1.4410    -1.5850     2.6060 hc         1 S80       0.059200
     37 H62         -0.5680    -2.1500     1.1740 hc         1 S80       0.059200
     38 H5          -0.3630     0.7400     1.9690 h1         1 S80       0.089700
     39 HN2         -2.8090    -0.5190     0.8840 hn         1 S80       0.328500
     40 H3          -4.6780     0.8700     1.0630 hc         1 S80       0.087700
     41 H2          -4.0060     3.7930     1.5650 hc         1 S80       0.077700
     42 HN1         -5.9040     5.1710     1.8790 hn         1 S80       0.320500
     43 HO2         -8.1030     5.5420     1.8010 ho         1 S80       0.398000
     44 H111        -4.7060     3.2420     3.8980 hc         1 S80       0.053200
     45 H112        -3.2630     2.3480     3.4000 hc         1 S80       0.053200
     46 H121        -6.0970     1.2600     3.2690 hc         1 S80       0.067700
     47 H122        -4.6110     0.3710     2.9060 hc         1 S80       0.067700
     48 H131        -3.8490     0.6950     5.2360 h1         1 S80       0.017200
     49 H132        -5.3350     1.5820     5.5990 h1         1 S80       0.017200
     50 HO5         -5.6110    -0.5820     6.1840 ho         1 S80       0.400000
     51 H141        -4.7800     3.1860    -0.6280 hc         1 S80       0.053700
     52 H142        -3.4190     2.1800    -1.1450 hc         1 S80       0.053700
     53 H15         -6.2520     1.1750    -0.6900 hc         1 S80       0.078700
     54 H171        -6.0240     2.6790    -2.6670 hc         1 S80       0.034533
     55 H172        -6.3710     1.0080    -3.1320 hc         1 S80       0.034533
     56 H173        -4.7270     1.6430    -3.2770 hc         1 S80       0.034533
     57 H161        -5.1870    -0.7800    -2.0660 hc         1 S80       0.034533
     58 H162        -4.8350    -0.6680    -0.3360 hc         1 S80       0.034533
     59 H163        -3.6480    -0.1020    -1.5190 hc         1 S80       0.034533
     60 H181         3.0070     0.5210    -1.1400 h1         1 S80       0.068200
     61 H182         1.4740     0.5170    -2.0220 h1         1 S80       0.068200
     62 H191         2.8610    -1.4290    -2.6550 h1         1 S80       0.025700
     63 H192         2.9130    -1.9440    -0.9640 h1         1 S80       0.025700
     64 H201         1.8810    -3.4180    -3.2610 h1         1 S80       0.029367
     65 H202         0.4700    -4.0190    -2.3790 h1         1 S80       0.029367
     66 H203         2.0390    -3.9070    -1.5690 h1         1 S80       0.029367
@<TRIPOS>BOND
     1     1     2 2
     2     1     3 1
     3     1     8 1
     4     3     4 1
     5     3    26 1
     6     4     5 1
     7     4    30 1
     8     4    31 1
     9     5     6 1
    10     5    32 1
    11     5    33 1
    12     6     7 1
    13     6    34 1
    14     6    35 1
    15     7     8 1
    16     7    36 1
    17     7    37 1
    18     8     9 1
    19     8    38 1
    20     9    10 1
    21     9    39 1
    22    10    11 1
    23    10    25 2
    24    11    12 1
    25    11    21 1
    26    11    40 1
    27    12    13 1
    28    12    17 1
    29    12    41 1
    30    13    14 2
    31    13    15 1
    32    15    16 1
    33    15    42 1
    34    16    43 1
    35    17    18 1
    36    17    44 1
    37    17    45 1
    38    18    19 1
    39    18    46 1
    40    18    47 1
    41    19    20 1
    42    19    48 1
    43    19    49 1
    44    20    50 1
    45    21    22 1
    46    21    51 1
    47    21    52 1
    48    22    23 1
    49    22    24 1
    50    22    53 1
    51    23    54 1
    52    23    55 1
    53    23    56 1
    54    24    57 1
    55    24    58 1
    56    24    59 1
    57    26    27 1
    58    26    60 1
    59    26    61 1
    60    27    28 1
    61    27    62 1
    62    27    63 1
    63    28    29 1
    64    29    64 1
    65    29    65 1
    66    29    66 1
@<TRIPOS>SUBSTRUCTURE
     1 S80         1 TEMP              0 ****  ****    0 ROOT
