@<TRIPOS>MOLECULE
S81
   51    52     1     0     0
SMALL
bcc


@<TRIPOS>ATOM
      1 C1           0.0000     0.0000     0.0000 c3         1 S81       0.402900
      2 C10         -1.8730    -1.4320     0.4330 c3         1 S81       0.172100
      3 C11         -2.0800    -2.2460    -0.8460 c3         1 S81       0.167100
      4 C12         -3.5760    -2.5010    -1.0500 c3         1 S81       0.149100
      5 C2           1.5310     0.0000     0.0000 c3         1 S81      -0.111500
      6 C3           2.0330     0.0000     1.4470 c3         1 S81       0.163100
      7 C4           1.4510     1.2140     2.1780 c3         1 S81       0.153600
      8 C5          -0.0760     1.1680     2.0940 c3         1 S81       0.138100
      9 C6          -0.6630     2.4080     2.7690 c3         1 S81      -0.046200
     10 C7          -4.1280    -3.2790     0.1470 c3         1 S81      -0.079500
     11 C8          -3.9200    -2.4650     1.4240 c3         1 S81      -0.034400
     12 C9          -2.4260    -2.2100     1.6290 c3         1 S81      -0.068500
     13 F99          1.8470     1.1850     3.5200 f          1 S81      -0.166300
     14 N2           2.0220    -1.2000    -0.6910 nz         1 S81       0.103400
     15 N6          -2.1280     2.3060     2.7940 nz         1 S81       0.092400
     16 N7          -5.5630    -3.5250    -0.0500 nz         1 S81       0.097400
     17 N9          -2.2250    -1.4280     2.8560 nz         1 S81       0.078400
     18 O1          -0.4770    -1.1940     0.6240 os         1 S81      -0.474600
     19 O11         -1.5640    -1.5200    -1.9620 oh         1 S81      -0.594800
     20 O12         -3.7700    -3.2620    -2.2440 oh         1 S81      -0.550800
     21 O23          3.4600     0.0740     1.4570 oh         1 S81      -0.537800
     22 O5          -0.4750     1.1390     0.7220 os         1 S81      -0.408600
     23 H1          -0.3590     0.0470    -1.0210 h2         1 S81       0.108700
     24 H2          -2.3960    -0.4870     0.3460 h1         1 S81       0.040700
     25 H3          -1.5640    -3.1940    -0.7560 h1         1 S81       0.053700
     26 H4          -4.0940    -1.5540    -1.1320 h1         1 S81       0.037700
     27 H5           1.8910     0.8870    -0.5060 hx         1 S81       0.149700
     28 H6           1.7090    -0.9080     1.9410 h1         1 S81       0.018700
     29 H7           1.8100     2.1230     1.7090 h1         1 S81       0.100700
     30 H8          -0.4360     0.2750     2.5910 h1         1 S81      -0.029300
     31 H9          -0.2890     2.4780     3.7830 hx         1 S81       0.133200
     32 H10         -0.3730     3.2920     2.2150 hx         1 S81       0.133200
     33 H11         -3.6040    -4.2240     0.2330 hx         1 S81       0.123700
     34 H12         -4.3100    -3.0170     2.2710 hc         1 S81       0.060200
     35 H13         -4.4380    -1.5180     1.3350 hc         1 S81       0.060200
     36 H14         -1.9080    -3.1580     1.7100 hx         1 S81       0.130700
     37 H15          1.5810    -1.2730    -1.5860 hn         1 S81       0.242133
     38 H16          3.0130    -1.1340    -0.8110 hn         1 S81       0.242133
     39 H18         -2.4650     2.1190     1.8710 hn         1 S81       0.225800
     40 H19         -2.5170     3.1670     3.1230 hn         1 S81       0.225800
     41 H21         -5.9490    -3.9310     0.7790 hn         1 S81       0.247467
     42 H22         -6.0260    -2.6580    -0.2430 hn         1 S81       0.247467
     43 H24         -2.6850    -1.8830     3.6200 hn         1 S81       0.234467
     44 H25         -1.2460    -1.3580     3.0510 hn         1 S81       0.234467
     45 H27         -1.4580    -2.1040    -2.6950 ho         1 S81       0.465000
     46 H28         -4.1550    -2.7130    -2.9070 ho         1 S81       0.457000
     47 H29          3.7960    -0.4290     2.1800 ho         1 S81       0.460000
     48 H23          1.7930    -2.0120    -0.1520 hn         1 S81       0.242133
     49 H63         -2.4000     1.5710     3.4170 hn         1 S81       0.225800
     50 H73         -5.6940    -4.1370    -0.8310 hn         1 S81       0.247467
     51 H93         -2.6060    -0.5110     2.7340 hn         1 S81       0.234467
@<TRIPOS>BOND
     1     1     5 1   
     2     1    18 1   
     3     1    22 1   
     4     1    23 1   
     5     2     3 1   
     6     2    12 1   
     7     2    18 1   
     8     2    24 1   
     9     3     4 1   
    10     3    19 1   
    11     3    25 1   
    12     4    10 1   
    13     4    20 1   
    14     4    26 1   
    15     5     6 1   
    16     5    14 1   
    17     5    27 1   
    18     6     7 1   
    19     6    21 1   
    20     6    28 1   
    21     7     8 1   
    22     7    13 1   
    23     7    29 1   
    24     8     9 1   
    25     8    22 1   
    26     8    30 1   
    27     9    15 1   
    28     9    31 1   
    29     9    32 1   
    30    10    11 1   
    31    10    16 1   
    32    10    33 1   
    33    11    12 1   
    34    11    34 1   
    35    11    35 1   
    36    12    17 1   
    37    12    36 1   
    38    14    37 1   
    39    14    38 1   
    40    14    48 1   
    41    15    39 1   
    42    15    40 1   
    43    15    49 1   
    44    16    41 1   
    45    16    42 1   
    46    16    50 1   
    47    17    43 1   
    48    17    44 1   
    49    17    51 1   
    50    19    45 1   
    51    20    46 1   
    52    21    47 1   
@<TRIPOS>SUBSTRUCTURE
     1 S81         1 TEMP              0 ****  ****    0 ROOT
