@<TRIPOS>MOLECULE
S82
   53    56     1     0     0
SMALL
bcc


@<TRIPOS>ATOM
      1 N1          1.0420    1.0550   -1.4540 n         1 S82     -0.383800
      2 C2          0.4510    0.0170   -2.1440 c         1 S82      0.628100
      3 N3         -1.0400    0.0670   -2.5110 n4        1 S82     -0.625800
      4 C4         -1.8550   -0.6160   -1.4960 cx        1 S82     -0.014500
      5 C5         -3.3830   -0.5990   -1.5860 cx        1 S82     -0.005400
      6 C6         -2.6790    0.1430   -0.4830 cx        1 S82     -0.106400
      7 C7         -4.1140   -1.8490   -1.3480 ca        1 S82     -0.115300
      8 C8         -5.1960   -2.1710   -2.1800 ca        1 S82     -0.109000
      9 C9         -5.9130   -3.3480   -1.9730 ca        1 S82     -0.118000
     10 C10        -5.5580   -4.2130   -0.9380 ca        1 S82     -0.094000
     11 C11        -4.4820   -3.8970   -0.1070 ca        1 S82     -0.118000
     12 C12        -3.7630   -2.7210   -0.3090 ca        1 S82     -0.109000
     13 O13         1.0200   -0.9530   -2.6570 o         1 S82     -0.489100
     14 C14         2.3600    0.7670   -0.8720 c3        1 S82      0.062000
     15 C15         2.2970    0.3920    0.6050 c3        1 S82     -0.114400
     16 C16         1.5260    1.4310    1.4120 c3        1 S82     -0.084000
     17 C17         0.1710    1.7420    0.7850 c3        1 S82     -0.114400
     18 C18         0.3110    2.0610   -0.7010 c3        1 S82      0.062000
     19 C19         1.3290    0.9330    2.7980 cc        1 S82      0.473700
     20 N20         1.8380    1.2860    3.9710 nd        1 S82     -0.652000
     21 C21         1.2250    0.3860    4.9010 cd        1 S82      0.553300
     22 N22         0.3830   -0.4600    4.2560 nc        1 S82     -0.358300
     23 O23         0.4200   -0.1570    2.9770 os        1 S82     -0.167100
     24 C24         1.5340    0.4200    6.3680 c3        1 S82     -0.088000
     25 C25         0.4050   -0.1710    7.1870 c3        1 S82     -0.095600
     26 C26         2.8350   -0.3160    6.6280 c3        1 S82     -0.095600
     27 HN3        -1.3690    1.0240   -2.6580 hn        1 S82      0.460300
     28 H4         -1.3590   -1.5680   -1.1860 hx        1 S82      0.157700
     29 H5         -3.8460    0.0230   -2.3850 hc        1 S82      0.099700
     30 H6         -2.7010    1.2490   -0.4980 hc        1 S82      0.108700
     31 H6A        -2.7040   -0.2520    0.5530 hc        1 S82      0.108700
     32 H8         -5.4890   -1.4920   -2.9950 ha        1 S82      0.131000
     33 H9         -6.7640   -3.5920   -2.6280 ha        1 S82      0.152000
     34 H10        -6.1260   -5.1420   -0.7750 ha        1 S82      0.154000
     35 H11        -4.2010   -4.5760    0.7130 ha        1 S82      0.152000
     36 H12        -2.9210   -2.4810    0.3580 ha        1 S82      0.131000
     37 H14         2.8600   -0.0610   -1.4530 h1        1 S82      0.087700
     38 H14A        2.9630    1.7110   -1.0070 h1        1 S82      0.087700
     39 H15         3.3490    0.3200    0.9910 hc        1 S82      0.082700
     40 H15A        1.8220   -0.6170    0.7330 hc        1 S82      0.082700
     41 H16         2.1340    2.3820    1.4570 hc        1 S82      0.101700
     42 H17        -0.5270    0.8740    0.9320 hc        1 S82      0.082700
     43 H17A       -0.2830    2.6330    1.2960 hc        1 S82      0.082700
     44 H18         0.9070    3.0160   -0.8200 h1        1 S82      0.087700
     45 H18A       -0.7070    2.2510   -1.1360 h1        1 S82      0.087700
     46 H24         1.6640    1.5020    6.6630 hc        1 S82      0.082700
     47 H25         0.6350   -0.0500    8.2740 hc        1 S82      0.049867
     48 H25A       -0.5580    0.3490    6.9670 hc        1 S82      0.049867
     49 H25B        0.2800   -1.2600    6.9730 hc        1 S82      0.049867
     50 H26         2.7460   -1.3910    6.3440 hc        1 S82      0.049867
     51 H26A        3.6700    0.1430    6.0460 hc        1 S82      0.049867
     52 H26B        3.0830   -0.2560    7.7150 hc        1 S82      0.049867
     53 H32        -1.1370   -0.4580   -3.3960 hn        1 S82      0.460300
@<TRIPOS>BOND
     1    1    2 1   
     2    1   14 1   
     3    1   18 1   
     4    2    3 1   
     5    2   13 2   
     6    3    4 1   
     7    3   27 1   
     8    3   53 1   
     9    4    5 1   
    10    4    6 1   
    11    4   28 1   
    12    5    6 1   
    13    5    7 1   
    14    5   29 1   
    15    6   30 1   
    16    6   31 1   
    17    7    8 ar  
    18    7   12 ar  
    19    8    9 ar  
    20    8   32 1   
    21    9   10 ar  
    22    9   33 1   
    23   10   11 ar  
    24   10   34 1   
    25   11   12 ar  
    26   11   35 1   
    27   12   36 1   
    28   14   15 1   
    29   14   37 1   
    30   14   38 1   
    31   15   16 1   
    32   15   39 1   
    33   15   40 1   
    34   16   17 1   
    35   16   19 1   
    36   16   41 1   
    37   17   18 1   
    38   17   42 1   
    39   17   43 1   
    40   18   44 1   
    41   18   45 1   
    42   19   20 2   
    43   19   23 1   
    44   20   21 1   
    45   21   22 2   
    46   21   24 1   
    47   22   23 1   
    48   24   25 1   
    49   24   26 1   
    50   24   46 1   
    51   25   47 1   
    52   25   48 1   
    53   25   49 1   
    54   26   50 1   
    55   26   51 1   
    56   26   52 1   
@<TRIPOS>SUBSTRUCTURE
     1 S82         1 TEMP              0 ****  ****    0 ROOT
