@<TRIPOS>MOLECULE
molecule
   51    52     1     0     0
SMALL
bcc


@<TRIPOS>ATOM
      1 F20          0.0000     0.0000     0.0000 f          1 S84      -0.224967
      2 C17          1.4000     0.0000     0.0000 c3         1 S84       0.673200
      3 F18          1.8650     0.0000     1.3190 f          1 S84      -0.224967
      4 F19          1.8660    -1.1420    -0.6590 f          1 S84      -0.224967
      5 C13          1.9030     1.2300    -0.7100 ca         1 S84      -0.133300
      6 C14          1.0050     2.1390    -1.2350 ca         1 S84      -0.172000
      7 C15          1.4690     3.2730    -1.8890 ca         1 S84       0.202600
      8 N22          0.5640     4.1940    -2.4200 nh         1 S84      -0.736000
      9 C21          1.0560     5.3900    -3.1100 c3         1 S84       0.230100
     10 C23         -0.8770     3.9650    -2.2890 c3         1 S84       0.234800
     11 C24         -1.3790     4.6070    -0.9930 c3         1 S84       0.127800
     12 N25         -2.8240     4.3770    -0.8600 n7         1 S84      -0.819200
     13 C26         -3.3410     4.9810     0.3750 c3         1 S84       0.149100
     14 C12          3.2620     1.4510    -0.8310 ca         1 S84      -0.138000
     15 C11          3.7280     2.5790    -1.4810 ca         1 S84      -0.044300
     16 C16          2.8360     3.4890    -2.0130 ca         1 S84      -0.178000
     17 C09          5.2110     2.8160    -1.6090 c3         1 S84      -0.030100
     18 C08          5.7200     2.1720    -2.9010 c3         1 S84      -0.120700
     19 C06          7.2030     2.4090    -3.0290 ca         1 S84       0.476600
     20 N01          7.6720     3.6410    -2.9790 nb         1 S84      -0.774000
     21 C02          8.9670     3.8960    -3.0860 ca         1 S84       0.711200
     22 N02          9.4180     5.2100    -3.0280 nv         1 S84      -1.015500
     23 C03          9.8800     2.8610    -3.2580 ca         1 S84      -0.328300
     24 C04          9.4180     1.5580    -3.3140 ca         1 S84      -0.003300
     25 C07         10.3740     0.4080    -3.4980 c3         1 S84      -0.050800
     26 C05          8.0530     1.3340    -3.1910 ca         1 S84      -0.309300
     27 H14         -0.0590     1.9380    -1.1890 ha         1 S84       0.157000
     28 H12          3.9650     0.7390    -0.4150 ha         1 S84       0.141000
     29 H16          3.2010     4.3720    -2.5230 ha         1 S84       0.140000
     30 H211         1.6770     5.9660    -2.4350 h1         1 S84       0.036700
     31 H212         0.2160     5.9930    -3.4320 h1         1 S84       0.036700
     32 H213         1.6400     5.0940    -3.9740 h1         1 S84       0.036700
     33 H231        -1.0720     2.9000    -2.2640 h1         1 S84       0.057700
     34 H232        -1.3920     4.4070    -3.1330 h1         1 S84       0.057700
     35 H241        -1.1840     5.6720    -1.0180 h1         1 S84       0.040700
     36 H242        -0.8640     4.1660    -0.1480 h1         1 S84       0.040700
     37 H25         -3.2980     4.7710    -1.6480 hn         1 S84       0.347800
     38 H261        -2.8390     4.5420     1.2290 h1         1 S84       0.032700
     39 H262        -4.4060     4.7970     0.4480 h1         1 S84       0.032700
     40 H263        -3.1590     6.0490     0.3580 h1         1 S84       0.032700
     41 H091         5.4050     3.8810    -1.6340 hc         1 S84       0.062200
     42 H092         5.7210     2.3750    -0.7600 hc         1 S84       0.062200
     43 H081         5.2090     2.6130    -3.7490 hc         1 S84       0.059200
     44 H082         5.5250     1.1070    -2.8750 hc         1 S84       0.059200
     45 H05          7.6580     0.3260    -3.2310 ha         1 S84       0.138000
     46 H021        10.3970     5.4070    -3.1050 hn         1 S84       0.438300
     47 H022         8.7640     5.9590    -2.9160 hn         1 S84       0.438300
     48 H03         10.9390     3.0710    -3.3460 ha         1 S84       0.133000
     49 H071        11.2250     0.7350    -4.0830 hc         1 S84       0.047367
     50 H072        10.7140     0.0620    -2.5290 hc         1 S84       0.047367
     51 H073         9.8720    -0.4010    -4.0140 hc         1 S84       0.047367
@<TRIPOS>BOND
     1     1     2 1
     2     2     3 1
     3     2     4 1
     4     2     5 1
     5     5     6 ar
     6     5    14 ar
     7     6     7 ar
     8     7     8 1
     9     7    16 ar
    10     8     9 1
    11     8    10 1
    12    10    11 1
    13    11    12 1
    14    12    13 1
    15    14    15 ar
    16    15    16 ar
    17    15    17 1
    18    17    18 1
    19    18    19 1
    20    19    20 ar
    21    19    26 ar
    22    20    21 ar
    23    21    22 1
    24    21    23 ar
    25    23    24 ar
    26    24    25 1
    27    24    26 ar
    28     6    27 1
    29    14    28 1
    30    16    29 1
    31     9    30 1
    32     9    31 1
    33     9    32 1
    34    10    33 1
    35    10    34 1
    36    11    35 1
    37    11    36 1
    38    12    37 1
    39    13    38 1
    40    13    39 1
    41    13    40 1
    42    17    41 1
    43    17    42 1
    44    18    43 1
    45    18    44 1
    46    26    45 1
    47    22    46 1
    48    22    47 1
    49    23    48 1
    50    25    49 1
    51    25    50 1
    52    25    51 1
@<TRIPOS>SUBSTRUCTURE
     1 S84         1 TEMP              0 ****  ****    0 ROOT
