@<TRIPOS>MOLECULE
S85
   48    49     1     0     0
SMALL
bcc


@<TRIPOS>ATOM
      1 F17          0.0000     0.0000     0.0000 f          1 S85      -0.133900
      2 C13          1.3510     0.0000     0.0000 ca         1 S85       0.153900
      3 C14          2.0420     0.0000     1.1980 ca         1 S85      -0.241000
      4 C15          3.4300    -0.0010     1.1970 ca         1 S85       0.106600
      5 N18          4.1310    -0.0010     2.4050 nh         1 S85      -0.385000
      6 C19          5.5970    -0.0020     2.4020 c3         1 S85       0.210100
      7 C20          3.4010     0.0000     3.6760 c3         1 S85       0.167800
      8 C21          3.1470    -1.4420     4.1180 c3         1 S85       0.111800
      9 N22          2.4160    -1.4410     5.3920 n7         1 S85      -0.584200
     10 C23          2.1520    -2.8130     5.8490 c3         1 S85       0.180100
     11 C12          2.0430    -0.0070    -1.1990 ca         1 S85      -0.196000
     12 C11          3.4260    -0.0090    -1.2010 ca         1 S85      -0.012300
     13 C16          4.1210    -0.0020    -0.0090 ca         1 S85      -0.201000
     14 C09          4.1760    -0.0160    -2.5090 c3         1 S85       0.026900
     15 C08          4.4310     1.4230    -2.9600 c3         1 S85      -0.067700
     16 C06          5.1800     1.4160    -4.2660 ca         1 S85       0.429600
     17 N01          6.3200     0.7560    -4.3600 nb         1 S85      -0.658000
     18 C02          7.0120     0.7220    -5.4890 ca         1 S85       0.516200
     19 N02          8.2070     0.0150    -5.5430 nv         1 S85      -0.535500
     20 C03          6.5530     1.3870    -6.6210 ca         1 S85      -0.313300
     21 C04          5.3610     2.0880    -6.5530 ca         1 S85      -0.003300
     22 C07          4.8300     2.8220    -7.7570 c3         1 S85       0.060200
     23 C05          4.6640     2.0940    -5.3530 ca         1 S85      -0.289300
     24 H14          1.5020     0.0670     2.1350 ha         1 S85       0.131000
     25 H12          1.5010    -0.0120    -2.1370 ha         1 S85       0.123000
     26 H16          5.2050    -0.0040    -0.0130 ha         1 S85       0.125000
     27 H191         5.9600    -0.0310     3.4220 h1         1 S85       0.007367
     28 H192         5.9560    -0.8720     1.8650 h1         1 S85       0.007367
     29 H193         5.9570     0.8970     1.9160 h1         1 S85       0.007367
     30 H201         2.4550     0.5120     3.5480 h1         1 S85       0.030700
     31 H202         3.9890     0.5110     4.4290 h1         1 S85       0.030700
     32 H211         2.5590    -1.9520     3.3650 h1         1 S85       0.015700
     33 H212         4.0930    -1.9530     4.2450 h1         1 S85       0.015700
     34 H22          1.5480    -0.9540     5.2790 hn         1 S85       0.250800
     35 H231         1.5420    -3.3260     5.1160 h1         1 S85      -0.000633
     36 H232         1.6300    -2.7830     6.7980 h1         1 S85      -0.000633
     37 H233         3.0910    -3.3390     5.9700 h1         1 S85      -0.000633
     38 H091         3.5890    -0.5310    -3.2600 hc         1 S85       0.028200
     39 H092         5.1230    -0.5260    -2.3790 hc         1 S85       0.028200
     40 H081         3.4840     1.9340    -3.0900 hc         1 S85       0.025200
     41 H082         5.0180     1.9380    -2.2090 hc         1 S85       0.025200
     42 H05          3.7290     2.6330    -5.2660 ha         1 S85       0.120000
     43 H021         8.5450    -0.4590    -4.7280 hn         1 S85       0.269300
     44 H022         8.7320    -0.0170    -6.3940 hn         1 S85       0.269300
     45 H03          7.1210     1.3580    -7.5430 ha         1 S85       0.119000
     46 H071         5.0190     3.8830    -7.6450 hc         1 S85       0.009700
     47 H072         3.7640     2.6520    -7.8420 hc         1 S85       0.009700
     48 H073         5.3260     2.4600    -8.6490 hc         1 S85       0.009700
@<TRIPOS>BOND
     1     1     2 1   
     2     2     3 ar  
     3     2    11 ar  
     4     3     4 ar  
     5     3    24 1   
     6     4     5 1   
     7     4    13 ar  
     8     5     6 1   
     9     5     7 1   
    10     6    27 1   
    11     6    28 1   
    12     6    29 1   
    13     7     8 1   
    14     7    30 1   
    15     7    31 1   
    16     8     9 1   
    17     8    32 1   
    18     8    33 1   
    19     9    10 1   
    20     9    34 1   
    21    10    35 1   
    22    10    36 1   
    23    10    37 1   
    24    11    12 ar  
    25    11    25 1   
    26    12    13 ar  
    27    12    14 1   
    28    13    26 1   
    29    14    15 1   
    30    14    38 1   
    31    14    39 1   
    32    15    16 1   
    33    15    40 1   
    34    15    41 1   
    35    16    17 ar  
    36    16    23 ar  
    37    17    18 ar  
    38    18    19 1   
    39    18    20 ar  
    40    19    43 1   
    41    19    44 1   
    42    20    21 ar  
    43    20    45 1   
    44    21    22 1   
    45    21    23 ar  
    46    22    46 1   
    47    22    47 1   
    48    22    48 1   
    49    23    42 1   
@<TRIPOS>SUBSTRUCTURE
     1 S85         1 TEMP              0 ****  ****    0 ROOT
