@<TRIPOS>MOLECULE
S88
   56    59     1     0     0
SMALL
bcc


@<TRIPOS>ATOM
      1 F29          0.0000     0.0000     0.0000 f          1 S88      -0.125900
      2 C27          1.3500     0.0000     0.0000 ca         1 S88       0.104900
      3 C26          2.0440     0.0000     1.1990 ca         1 S88      -0.126000
      4 C25          3.4260    -0.0000     1.1970 ca         1 S88      -0.075000
      5 C24          4.1170     0.0000    -0.0000 ca         1 S88      -0.099000
      6 C28          2.0440    -0.0050    -1.1990 ca         1 S88      -0.118000
      7 C23          3.4260     0.0020    -1.1980 ca         1 S88      -0.099300
      8 C22          4.1800    -0.0040    -2.5020 c3         1 S88       0.111300
      9 N21          4.4180     1.3750    -2.9340 ns         1 S88      -0.204900
     10 C19          5.0800     1.6170    -4.0830 c          1 S88       0.576100
     11 O20          5.4790     0.6930    -4.7600 o          1 S88      -0.643100
     12 C16          5.3240     3.0370    -4.5270 c3         1 S88      -0.123700
     13 C15          3.9840     3.7490    -4.7240 c3         1 S88      -0.012900
     14 C14          4.2370     5.1700    -5.2340 c3         1 S88       0.134800
     15 N13          4.9730     5.1120    -6.5030 n3         1 S88      -0.534600
     16 C18          6.2840     4.4740    -6.3300 c3         1 S88       0.134800
     17 C17          6.0910     3.0320    -5.8530 c3         1 S88      -0.012900
     18 C11          5.1130     6.4510    -7.0920 c3         1 S88       0.183800
     19 C12          3.7260     7.0410    -7.3550 c3         1 S88      -0.005100
     20 C10          5.8710     6.3520    -8.3910 ca         1 S88      -0.085300
     21 C2           6.5880     7.4580    -8.8770 ca         1 S88      -0.024000
     22 C1           6.6190     8.6740    -8.1720 ca         1 S88      -0.104000
     23 C6           7.3260     9.7240    -8.6730 ca         1 S88      -0.096000
     24 C5           8.0200     9.6140    -9.8760 ca         1 S88      -0.104000
     25 C4           8.0130     8.4530   -10.5850 ca         1 S88      -0.084000
     26 C3           7.2950     7.3460   -10.1000 ca         1 S88      -0.036000
     27 C7           7.2640     6.1300   -10.8040 ca         1 S88      -0.090000
     28 C8           6.5590     5.0790   -10.3030 ca         1 S88      -0.100000
     29 C9           5.8680     5.1890    -9.0970 ca         1 S88      -0.093000
     30 H1           1.5040    -0.0000     2.1380 ha         1 S88       0.120000
     31 H2           3.9690    -0.0010     2.1350 ha         1 S88       0.109000
     32 H3           5.2000     0.0030    -0.0000 ha         1 S88       0.113000
     33 H4           1.5030    -0.0040    -2.1380 ha         1 S88       0.125000
     34 H5           5.1290    -0.5090    -2.3690 h1         1 S88       0.031700
     35 H6           3.5980    -0.5220    -3.2540 h1         1 S88       0.031700
     36 H7           4.1190     2.1380    -2.3590 hn         1 S88       0.179500
     37 H8           5.9040     3.5610    -3.7780 hc         1 S88       0.035700
     38 H9           3.4570     3.7940    -3.7780 hc         1 S88       0.028700
     39 H10          3.3900     3.2060    -5.4490 hc         1 S88       0.028700
     40 H11          4.8230     5.7150    -4.5030 h1         1 S88       0.018200
     41 H12          3.2890     5.6710    -5.3900 h1         1 S88       0.018200
     42 H14          6.8570     5.0230    -5.5930 h1         1 S88       0.018200
     43 H15          6.8100     4.4720    -7.2770 h1         1 S88       0.018200
     44 H16          7.0590     2.5680    -5.7080 hc         1 S88       0.028700
     45 H17          5.5270     2.4790    -6.5940 hc         1 S88       0.028700
     46 H18          5.6530     7.0920    -6.4060 h1         1 S88       0.016700
     47 H19          3.7760     7.7210    -8.1960 hc         1 S88       0.013367
     48 H20          3.0300     6.2410    -7.5790 hc         1 S88       0.013367
     49 H21          3.3890     7.5770    -6.4760 hc         1 S88       0.013367
     50 H22          6.0850     8.7750    -7.2350 ha         1 S88       0.112000
     51 H23          7.3480    10.6600    -8.1280 ha         1 S88       0.100000
     52 H24          8.5750    10.4650   -10.2520 ha         1 S88       0.101000
     53 H25          8.5570     8.3820   -11.5190 ha         1 S88       0.106000
     54 H26          7.7960     6.0300   -11.7420 ha         1 S88       0.106000
     55 H27          6.5400     4.1420   -10.8450 ha         1 S88       0.103000
     56 H28          5.3140     4.3370    -8.7210 ha         1 S88       0.132000
@<TRIPOS>BOND
     1     1     2 1   
     2     2     3 ar  
     3     2     6 ar  
     4     3     4 ar  
     5     3    30 1   
     6     4     5 ar  
     7     4    31 1   
     8     5     7 ar  
     9     5    32 1   
    10     6     7 ar  
    11     6    33 1   
    12     7     8 1   
    13     8     9 1   
    14     8    34 1   
    15     8    35 1   
    16     9    10 1   
    17     9    36 1   
    18    10    11 2   
    19    10    12 1   
    20    12    13 1   
    21    12    17 1   
    22    12    37 1   
    23    13    14 1   
    24    13    38 1   
    25    13    39 1   
    26    14    15 1   
    27    14    40 1   
    28    14    41 1   
    29    15    16 1   
    30    15    18 1   
    31    16    17 1   
    32    16    42 1   
    33    16    43 1   
    34    17    44 1   
    35    17    45 1   
    36    18    19 1   
    37    18    20 1   
    38    18    46 1   
    39    19    47 1   
    40    19    48 1   
    41    19    49 1   
    42    20    21 ar  
    43    20    29 ar  
    44    21    22 ar  
    45    21    26 ar  
    46    22    23 ar  
    47    22    50 1   
    48    23    24 ar  
    49    23    51 1   
    50    24    25 ar  
    51    24    52 1   
    52    25    26 ar  
    53    25    53 1   
    54    26    27 ar  
    55    27    28 ar  
    56    27    54 1   
    57    28    29 ar  
    58    28    55 1   
    59    29    56 1   
@<TRIPOS>SUBSTRUCTURE
     1 S88         1 TEMP              0 ****  ****    0 ROOT
