@<TRIPOS>MOLECULE
S8A
   22    23     1     0     0
SMALL
bcc


@<TRIPOS>ATOM
      1 O4           0.0000     0.0000     0.0000 o          1 S8A      -0.640500
      2 C7           1.2160     0.0000     0.0000 c          1 S8A       0.654100
      3 C3           1.9720     0.0000     1.2590 ca         1 S8A      -0.086600
      4 C2           1.5160     0.0000     2.5880 ca         1 S8A      -0.045000
      5 C8           2.4130     0.0020     3.6310 ca         1 S8A      -0.085000
      6 C1           3.7770     0.0010     3.3960 ca         1 S8A      -0.121000
      7 C9           4.2450     0.0010     2.0900 ca         1 S8A       0.026000
      8 C5           3.3580     0.0000     1.0510 ca         1 S8A      -0.115500
      9 S1           3.5200    -0.0000    -0.7120 sy         1 S8A       1.020900
     10 O1           4.0660     1.2560    -1.0920 o          1 S8A      -0.570800
     11 O5           4.0700    -1.2550    -1.0910 o          1 S8A      -0.570800
     12 N1           1.9070    -0.0060    -1.1490 n          1 S8A      -0.142200
     13 C4           1.3600    -0.0080    -2.5080 c3         1 S8A       0.016000
     14 C6           1.0620    -1.4240    -2.9270 c          1 S8A       0.962600
     15 O3           1.2840    -2.3380    -2.1690 o          1 S8A      -0.880300
     16 O2           0.5510    -1.6710    -4.1430 o          1 S8A      -0.880300
     17 H1           0.4520     0.0010     2.7930 ha         1 S8A       0.117000
     18 H2           2.0470     0.0020     4.6510 ha         1 S8A       0.095000
     19 H3           4.4740     0.0020     4.2250 ha         1 S8A       0.099000
     20 H4           5.3110     0.0000     1.8950 ha         1 S8A       0.101000
     21 H5           2.0820     0.4260    -3.1890 h1         1 S8A       0.023700
     22 H6           0.4470     0.5750    -2.5310 h1         1 S8A       0.023700
@<TRIPOS>BOND
     1     1     2 2   
     2     2     3 1   
     3     2    12 1   
     4     3     4 ar  
     5     3     8 ar  
     6     4     5 ar  
     7     4    17 1   
     8     5     6 ar  
     9     5    18 1   
    10     6     7 ar  
    11     6    19 1   
    12     7     8 ar  
    13     7    20 1   
    14     8     9 1   
    15     9    10 2   
    16     9    11 2   
    17     9    12 1   
    18    12    13 1   
    19    13    14 1   
    20    13    21 1   
    21    13    22 1   
    22    14    15 1   
    23    14    16 1   
@<TRIPOS>SUBSTRUCTURE
     1 S8A         1 TEMP              0 ****  ****    0 ROOT
