@<TRIPOS>MOLECULE
molecule
   22    23     1     0     0
SMALL
bcc


@<TRIPOS>ATOM
      1 O4           0.0000     0.0000     0.0000 o          1 S8A      -0.582500
      2 C7           1.2160     0.0000     0.0000 c          1 S8A       0.682100
      3 C3           1.9720     0.0000     1.2590 ca         1 S8A      -0.093600
      4 C2           1.5160     0.0000     2.5880 ca         1 S8A      -0.069000
      5 C8           2.4130     0.0020     3.6310 ca         1 S8A      -0.109000
      6 C1           3.7770     0.0010     3.3960 ca         1 S8A      -0.136000
      7 C9           4.2450     0.0010     2.0900 ca         1 S8A      -0.011000
      8 C5           3.3580     0.0000     1.0510 ca         1 S8A      -0.258500
      9 S1           3.5200    -0.0000    -0.7120 sy         1 S8A       1.389900
     10 O1           4.0660     1.2560    -1.0920 o          1 S8A      -0.611300
     11 O5           4.0700    -1.2550    -1.0910 o          1 S8A      -0.611300
     12 N1           1.9070    -0.0060    -1.1490 n          1 S8A      -0.489200
     13 C4           1.3600    -0.0080    -2.5080 c3         1 S8A       0.024000
     14 C6           1.0620    -1.4240    -2.9270 c          1 S8A       0.876600
     15 O3           1.2840    -2.3380    -2.1690 o          1 S8A      -0.825800
     16 O2           0.5510    -1.6710    -4.1430 o          1 S8A      -0.825800
     17 H1           0.4520     0.0010     2.7930 ha         1 S8A       0.149000
     18 H2           2.0470     0.0020     4.6510 ha         1 S8A       0.126000
     19 H3           4.4740     0.0020     4.2250 ha         1 S8A       0.127000
     20 H4           5.3110     0.0000     1.8950 ha         1 S8A       0.133000
     21 H5           2.0820     0.4260    -3.1890 h1         1 S8A       0.057700
     22 H6           0.4470     0.5750    -2.5310 h1         1 S8A       0.057700
@<TRIPOS>BOND
     1     6     7 ar
     2     6     5 ar
     3     7     8 ar
     4    11     9 2
     5     5     4 ar
     6     8     9 1
     7     8     3 ar
     8     4     3 ar
     9     9    10 2
    10     9    12 1
    11     3     2 1
    12    15    14 1
    13    12     2 1
    14    12    13 1
    15     2     1 2
    16    14    16 1
    17    14    13 1
    18     4    17 1
    19     5    18 1
    20     6    19 1
    21     7    20 1
    22    13    21 1
    23    13    22 1
@<TRIPOS>SUBSTRUCTURE
     1 S8A         1 TEMP              0 ****  ****    0 ROOT
