@<TRIPOS>MOLECULE
molecule
   41    43     1     0     0
SMALL
bcc


@<TRIPOS>ATOM
      1 N01          0.0000     0.0000     0.0000 nc         1 S8F      -0.692000
      2 C02          1.3050     0.0000     0.0000 cd         1 S8F       0.436400
      3 N03          1.7360     0.0000     1.2900 na         1 S8F      -0.215700
      4 C04          0.6190    -0.0010     2.0880 cd         1 S8F      -0.243600
      5 C05         -0.4450    -0.0010     1.2660 cc         1 S8F       0.313200
      6 C1'          9.3660    -4.3390    -3.1390 ca         1 S8F      -0.057300
      7 N11          3.3210    -0.0000     3.0190 nb         1 S8F      -0.755000
      8 C12          3.0630     0.0000     1.7210 ca         1 S8F       0.793500
      9 N13          4.0340    -0.0000     0.8210 nb         1 S8F      -0.739000
     10 C14          5.3020     0.0000     1.1950 ca         1 S8F       0.498600
     11 C15          5.6080    -0.0000     2.5470 ca         1 S8F      -0.404600
     12 C16          4.5670    -0.0010     3.4610 ca         1 S8F       0.490200
     13 C17          6.4020    -0.0010     0.1640 c3         1 S8F       0.108500
     14 N18          6.6760    -1.3800    -0.2590 n7         1 S8F      -0.806200
     15 C19          7.7440    -1.4190    -1.2660 c3         1 S8F       0.156800
     16 C2'          8.6670    -4.8900    -4.1960 ca         1 S8F      -0.164000
     17 C20          8.0000    -2.8700    -1.6810 c3         1 S8F      -0.078400
     18 C21          9.1140    -2.9110    -2.7300 c3         1 S8F      -0.036100
     19 C3'          8.8990    -6.2020    -4.5720 ca         1 S8F       0.137900
     20 C4'          9.8320    -6.9610    -3.8870 ca         1 S8F      -0.170000
     21 C5'         10.5310    -6.4090    -2.8300 ca         1 S8F      -0.100000
     22 C6'         10.2950    -5.1010    -2.4530 ca         1 S8F      -0.143000
     23 F7'          8.2150    -6.7410    -5.6040 f          1 S8F      -0.139900
     24 H02          1.9370     0.0010    -0.8790 h5         1 S8F       0.085100
     25 H04          0.5990    -0.0010     3.1710 h4         1 S8F       0.190000
     26 H05         -1.4840    -0.0010     1.5720 h4         1 S8F       0.045100
     27 H15          6.6390    -0.0010     2.8810 ha         1 S8F       0.150000
     28 H16          4.7710    -0.0010     4.5250 h4         1 S8F       0.037100
     29 H17          7.2980     0.4300     0.5920 h1         1 S8F       0.053200
     30 H17A         6.0930     0.5850    -0.6930 h1         1 S8F       0.053200
     31 HN18         6.9460    -1.9250     0.5350 hn         1 S8F       0.354800
     32 H19          8.6500    -0.9980    -0.8480 h1         1 S8F       0.034200
     33 H19A         7.4440    -0.8430    -2.1330 h1         1 S8F       0.034200
     34 H2'          7.9370    -4.2940    -4.7310 ha         1 S8F       0.147000
     35 H20          8.3000    -3.4470    -0.8140 hc         1 S8F       0.055700
     36 H20A         7.0950    -3.2920    -2.1000 hc         1 S8F       0.055700
     37 H21         10.0200    -2.4890    -2.3110 hc         1 S8F       0.051200
     38 H21A         8.8140    -2.3340    -3.5970 hc         1 S8F       0.051200
     39 H4'         10.0170    -7.9870    -4.1810 ha         1 S8F       0.145000
     40 H5'         11.2600    -7.0040    -2.2920 ha         1 S8F       0.136000
     41 H6'         10.8430    -4.6690    -1.6240 ha         1 S8F       0.133000
@<TRIPOS>BOND
     1     1     2 2
     2     1     5 1
     3     2     3 1
     4     3     4 1
     5     3     8 1
     6     4     5 2
     7     6    16 ar
     8     6    18 1
     9     6    22 ar
    10     7     8 ar
    11     7    12 ar
    12     8     9 ar
    13     9    10 ar
    14    10    11 ar
    15    10    13 1
    16    11    12 ar
    17    13    14 1
    18    14    15 1
    19    15    17 1
    20    16    19 ar
    21    17    18 1
    22    19    20 ar
    23    19    23 1
    24    20    21 ar
    25    21    22 ar
    26     2    24 1
    27     4    25 1
    28     5    26 1
    29    11    27 1
    30    12    28 1
    31    13    29 1
    32    13    30 1
    33    14    31 1
    34    15    32 1
    35    15    33 1
    36    16    34 1
    37    17    35 1
    38    17    36 1
    39    18    37 1
    40    18    38 1
    41    20    39 1
    42    21    40 1
    43    22    41 1
@<TRIPOS>SUBSTRUCTURE
     1 S8F         1 TEMP              0 ****  ****    0 ROOT
