@<TRIPOS>MOLECULE
molecule
   58    60     1     0     0
SMALL
bcc


@<TRIPOS>ATOM
      1 C1           0.0000     0.0000     0.0000 ca         1 S8Y      -0.126000
      2 C2           1.3830     0.0000     0.0000 ca         1 S8Y      -0.128500
      3 C3          -0.6910     0.0000     1.1980 ca         1 S8Y      -0.128500
      4 C4           2.0740     0.0000     1.1970 ca         1 S8Y      -0.106500
      5 C5           0.0000     0.0010     2.3950 ca         1 S8Y      -0.106500
      6 C6          -0.5240     4.4590     3.9320 ca         1 S8Y      -0.133000
      7 C7          -1.3650     5.0900     3.0290 ca         1 S8Y      -0.144000
      8 C8           0.6950     6.5090     4.2330 ca         1 S8Y      -0.048600
      9 C9           1.3830     0.0010     2.3940 ca         1 S8Y      -0.095300
     10 C10          0.5000     5.1570     4.5320 ca         1 S8Y      -0.085300
     11 C11         -1.1860     6.4280     2.7220 ca         1 S8Y       0.021100
     12 C12         -0.1550     7.1460     3.3210 ca         1 S8Y       0.067100
     13 C14          2.1730    -1.3990     4.2580 c          1 S8Y       0.660100
     14 C16         -1.4960     8.5940     2.2820 c3         1 S8Y       0.327200
     15 C17          1.3510    -4.2440     4.3290 c3         1 S8Y      -0.100433
     16 C18          3.5460    -3.7540     5.4180 c3         1 S8Y      -0.100433
     17 C19          3.4810    -4.6810     3.0990 c3         1 S8Y      -0.100433
     18 C20          0.1540     2.4810     6.4790 c3         1 S8Y       0.090300
     19 C21          1.4100     4.4630     5.5140 c3         1 S8Y       0.176300
     20 C22          2.1370     0.0000     3.6990 c3         1 S8Y       0.113000
     21 C23          2.7810    -3.7520     4.0940 c3         1 S8Y       0.124400
     22 N24          2.7460    -2.3920     3.5500 ns         1 S8Y      -0.575900
     23 N25          1.4650     0.8890     4.6510 ns         1 S8Y      -0.597900
     24 N26          1.1180     3.0270     5.5200 n          1 S8Y      -0.503800
     25 O27          1.5540     7.9670     5.9970 o          1 S8Y      -0.824800
     26 O28          2.9050     7.2400     4.3920 o          1 S8Y      -0.824800
     27 O29          1.6850    -1.6300     5.3440 o          1 S8Y      -0.620100
     28 O30          2.5340     2.6630     3.8490 o          1 S8Y      -0.639100
     29 O31         -1.8660     7.2620     1.8820 os         1 S8Y      -0.350900
     30 O32         -0.1880     8.4270     2.8600 os         1 S8Y      -0.299900
     31 H1          -0.5420    -0.0000    -0.9380 ha         1 S8Y       0.124000
     32 H2           1.9250    -0.0010    -0.9380 ha         1 S8Y       0.126000
     33 H3          -1.7740     0.0000     1.1980 ha         1 S8Y       0.126000
     34 H4           3.1570    -0.0000     1.1970 ha         1 S8Y       0.131500
     35 H5          -0.5410     0.0020     3.3330 ha         1 S8Y       0.131500
     36 H6          -0.6730     3.4120     4.1660 ha         1 S8Y       0.121000
     37 H7          -2.1680     4.5330     2.5620 ha         1 S8Y       0.115000
     38 H22          3.1490     0.3480     3.5320 h1         1 S8Y       0.101700
     39 H211         1.2500     4.8690     6.5050 h1         1 S8Y       0.091700
     40 H212         2.4420     4.6200     5.2220 h1         1 S8Y       0.091700
     41 H24          3.1870    -2.1920     2.6740 hn         1 S8Y       0.318500
     42 H25          0.8300     0.5120     5.3260 hn         1 S8Y       0.326500
     43 H161        -2.1910     8.9750     3.0210 h2         1 S8Y       0.050200
     44 H162        -1.4490     9.2490     1.4200 h2         1 S8Y       0.050200
     45 H171         0.7090    -3.8800     3.5370 hc         1 S8Y       0.043589
     46 H172         1.3390    -5.3270     4.3360 hc         1 S8Y       0.043589
     47 H173         0.9940    -3.8730     5.2820 hc         1 S8Y       0.043589
     48 H181         4.3660    -3.0480     5.3620 hc         1 S8Y       0.043589
     49 H182         3.9360    -4.7460     5.6090 hc         1 S8Y       0.043589
     50 H183         2.8770    -3.4680     6.2210 hc         1 S8Y       0.043589
     51 H191         3.4940    -5.6900     3.4940 hc         1 S8Y       0.043589
     52 H192         2.9470    -4.6690     2.1570 hc         1 S8Y       0.043589
     53 H193         4.4980    -4.3420     2.9430 hc         1 S8Y       0.043589
     54 H201        -0.2920     3.2900     7.0440 h1         1 S8Y       0.033033
     55 H202        -0.6200     1.9430     5.9460 h1         1 S8Y       0.033033
     56 H203         0.6620     1.8050     7.1560 h1         1 S8Y       0.033033
     57 C15          1.7350     2.2100     4.6450 c          1 S8Y       0.783100
     58 C13          1.7900     7.2590     4.8750 c          1 S8Y       0.881200
@<TRIPOS>BOND
     1     1     2 ar
     2     1     3 ar
     3     2     4 ar
     4     3     5 ar
     5     4     9 ar
     6     5     9 ar
     7     6     7 ar
     8     6    10 ar
     9     7    11 ar
    10     8    10 ar
    11     8    12 ar
    12     8    58 1
    13     9    20 1
    14    10    19 1
    15    11    12 ar
    16    11    29 1
    17    12    30 1
    18    58    25 1
    19    58    26 1
    20    13    20 1
    21    13    22 1
    22    13    27 2
    23    57    23 1
    24    57    24 1
    25    57    28 2
    26    14    29 1
    27    14    30 1
    28    15    21 1
    29    16    21 1
    30    17    21 1
    31    18    24 1
    32    19    24 1
    33    20    23 1
    34    21    22 1
    35     1    31 1
    36     2    32 1
    37     3    33 1
    38     4    34 1
    39     5    35 1
    40     6    36 1
    41     7    37 1
    42    20    38 1
    43    19    39 1
    44    19    40 1
    45    22    41 1
    46    23    42 1
    47    14    43 1
    48    14    44 1
    49    15    45 1
    50    15    46 1
    51    15    47 1
    52    16    48 1
    53    16    49 1
    54    16    50 1
    55    17    51 1
    56    17    52 1
    57    17    53 1
    58    18    54 1
    59    18    55 1
    60    18    56 1
@<TRIPOS>SUBSTRUCTURE
     1 S8Y         1 TEMP              0 ****  ****    0 ROOT
