@<TRIPOS>MOLECULE
S8Z
   54    57     1     0     0
SMALL
bcc


@<TRIPOS>ATOM
      1 C1          0.2050   -0.5720   -0.3380 c3        1 S8Z      0.112700
      2 O2          1.6040   -0.3400   -0.2840 os        1 S8Z     -0.415600
      3 C3          2.1040   -0.3890    1.0570 c3        1 S8Z      0.200500
      4 C4          3.5250   -0.1700    1.0190 c1        1 S8Z     -0.066100
      5 C5          4.7090    0.0110    1.0010 cg        1 S8Z     -0.137000
      6 C6          6.0980    0.2220    0.9820 ca        1 S8Z      0.045000
      7 C7          6.7580    0.7550    2.1020 ca        1 S8Z     -0.083000
      8 C8          8.1330    0.9720    2.0610 ca        1 S8Z     -0.129000
      9 C9          8.8670    0.6660    0.9150 ca        1 S8Z     -0.107000
     10 C10         8.2200    0.1170   -0.1960 ca        1 S8Z     -0.119300
     11 C11         6.8380   -0.0980   -0.1680 ca        1 S8Z     -0.072000
     12 C12         8.9660   -0.2270   -1.4650 c3        1 S8Z      0.245500
     13 C13        10.5260   -0.1810   -1.2570 c2        1 S8Z      0.535200
     14 N14        11.2660   -1.0380   -0.6540 n2        1 S8Z     -0.517900
     15 C15        12.6920   -0.9230   -0.6650 c3        1 S8Z      0.059800
     16 C16        13.3220    0.2860   -1.4480 c3        1 S8Z      0.398600
     17 C17        12.3270    0.8870   -2.5240 c3        1 S8Z      0.108800
     18 N18        11.0150    1.0220   -1.9440 nh        1 S8Z     -0.699600
     19 C19         9.8730    1.4710   -2.6950 c2        1 S8Z      0.586100
     20 N20         8.7240    0.8760   -2.4590 n2        1 S8Z     -0.497900
     21 N21         9.9880    2.6630   -3.5620 n4        1 S8Z     -0.777600
     22 F22        14.4860   -0.0850   -2.0820 f         1 S8Z     -0.212800
     23 F23        13.7470    1.2750   -0.5900 f         1 S8Z     -0.212800
     24 C24         8.5870   -1.5920   -1.9840 ca        1 S8Z     -0.151300
     25 C25         8.1670   -1.8190   -3.3000 ca        1 S8Z     -0.067500
     26 C26         7.8450   -3.1010   -3.7290 ca        1 S8Z     -0.163500
     27 C27         7.9430   -4.1770   -2.8260 ca        1 S8Z      0.163100
     28 C28         8.3520   -3.9620   -1.5050 ca        1 S8Z     -0.163500
     29 C29         8.6660   -2.6710   -1.0910 ca        1 S8Z     -0.067500
     30 O30         7.6050   -5.3990   -3.3730 os        1 S8Z     -0.375900
     31 C31         7.6230   -6.5890   -2.6110 c3        1 S8Z      0.594700
     32 F32         8.8760   -6.7790   -2.1100 f         1 S8Z     -0.237300
     33 F33         6.8080   -6.4440   -1.5290 f         1 S8Z     -0.237300
     34 H11C       -0.0410   -0.5030   -1.4270 h1        1 S8Z      0.040700
     35 H12C       -0.0420   -1.5880    0.0570 h1        1 S8Z      0.040700
     36 H13C       -0.3480    0.2090    0.2410 h1        1 S8Z      0.040700
     37 H31C        1.8780   -1.3990    1.5050 h1        1 S8Z      0.057200
     38 H32C        1.6020    0.4110    1.6730 h1        1 S8Z      0.057200
     39 H7          6.1840    1.0000    3.0100 ha        1 S8Z      0.156000
     40 H11         6.3260   -0.5250   -1.0460 ha        1 S8Z      0.160000
     41 H8          8.6470    1.3890    2.9420 ha        1 S8Z      0.150000
     42 H9          9.9500    0.8550    0.9080 ha        1 S8Z      0.137000
     43 H151       13.0420   -0.8590    0.4070 h1        1 S8Z      0.125200
     44 H152       13.1010   -1.8780   -1.1100 h1        1 S8Z      0.125200
     45 H171       12.3520    0.2030   -3.4190 h1        1 S8Z      0.077700
     46 H172       12.7160    1.9000   -2.8210 h1        1 S8Z      0.077700
     47 H211       10.2490    3.4710   -2.9790 hn        1 S8Z      0.483467
     48 H212        9.0840    2.8510   -4.0210 hn        1 S8Z      0.483467
     49 H25         8.0640   -0.9970   -4.0240 ha        1 S8Z      0.145500
     50 H29         8.9780   -2.5020   -0.0470 ha        1 S8Z      0.145500
     51 H26         7.5080   -3.2870   -4.7600 ha        1 S8Z      0.166500
     52 H28         8.4210   -4.8000   -0.7930 ha        1 S8Z      0.166500
     53 H31         7.2910   -7.4000   -3.3280 h3        1 S8Z      0.143700
     54 H213       10.7100    2.5010   -4.2730 hn        1 S8Z      0.483467
@<TRIPOS>BOND
     1    1    2 1   
     2    1   34 1   
     3    1   35 1   
     4    1   36 1   
     5    2    3 1   
     6    3    4 1   
     7    3   37 1   
     8    3   38 1   
     9    4    5 3   
    10    5    6 1   
    11    6    7 ar  
    12    6   11 ar  
    13    7    8 ar  
    14    7   39 1   
    15    8    9 ar  
    16    8   41 1   
    17    9   10 ar  
    18    9   42 1   
    19   10   11 ar  
    20   10   12 1   
    21   11   40 1   
    22   12   13 1   
    23   12   20 1   
    24   12   24 1   
    25   13   14 2   
    26   13   18 1   
    27   14   15 1   
    28   15   16 1   
    29   15   43 1   
    30   15   44 1   
    31   16   17 1   
    32   16   22 1   
    33   16   23 1   
    34   17   18 1   
    35   17   45 1   
    36   17   46 1   
    37   18   19 1   
    38   19   20 2   
    39   19   21 1   
    40   21   47 1   
    41   21   48 1   
    42   21   54 1   
    43   24   25 ar  
    44   24   29 ar  
    45   25   26 ar  
    46   25   49 1   
    47   26   27 ar  
    48   26   51 1   
    49   27   28 ar  
    50   27   30 1   
    51   28   29 ar  
    52   28   52 1   
    53   29   50 1   
    54   30   31 1   
    55   31   32 1   
    56   31   33 1   
    57   31   53 1   
@<TRIPOS>SUBSTRUCTURE
     1 S8Z         1 TEMP              0 ****  ****    0 ROOT
