@<TRIPOS>MOLECULE
molecule
   54    57     1     0     0
SMALL
bcc


@<TRIPOS>ATOM
      1 C1           0.0000     0.0000     0.0000 c3         1 S8Z       0.135700
      2 O2           1.4290     0.0000     0.0000 os         1 S8Z      -0.411600
      3 C3           2.0100     0.0000     1.3060 c3         1 S8Z       0.052500
      4 C4           3.4780    -0.0000     1.1900 c1         1 S8Z       0.023900
      5 C5           4.6470    -0.0210     1.0940 cg         1 S8Z      -0.177000
      6 C6           6.1990    -0.1280     0.8820 ca         1 S8Z       0.060000
      7 C7           6.8120     0.5000    -0.4640 ca         1 S8Z      -0.059000
      8 C8           8.1810     0.2180    -0.2990 ca         1 S8Z      -0.154000
      9 C9           8.7800    -0.2860     0.4890 ca         1 S8Z      -0.100000
     10 C10          8.4160    -0.9030     1.7450 ca         1 S8Z      -0.134300
     11 C11          7.2590    -0.7120     1.6950 ca         1 S8Z      -0.038000
     12 C12          9.1870    -1.4470     2.5620 c3         1 S8Z       0.339500
     13 C13         10.2110    -2.5510     1.8170 c2         1 S8Z       0.644200
     14 N14         10.1290    -2.7550     0.4740 n2         1 S8Z      -0.582900
     15 C15         11.0190    -3.7260    -0.2230 c3         1 S8Z       0.122800
     16 C16         10.7700    -5.2870     0.6460 c3         1 S8Z       0.405600
     17 C17         10.7920    -5.2250     1.8820 c3         1 S8Z       0.235800
     18 N18          9.7420    -3.9350     2.6090 nh         1 S8Z      -0.963600
     19 C19          8.7460    -3.6070     3.5130 c2         1 S8Z       0.677100
     20 N20          8.3760    -2.4010     3.7240 n2         1 S8Z      -0.609900
     21 N21          7.9630    -4.5510     3.6250 nz         1 S8Z      -0.718600
     22 F22          9.3100    -5.5620     0.3520 f          1 S8Z      -0.216800
     23 F23         11.4570    -6.1140     0.2900 f          1 S8Z      -0.216800
     24 C24         10.2510    -0.5860     3.2870 ca         1 S8Z      -0.116300
     25 C25         10.3770     0.6920     3.0790 ca         1 S8Z      -0.072000
     26 C26         11.2800     1.5760     3.6560 ca         1 S8Z      -0.182500
     27 C27         12.1650     1.0820     4.5610 ca         1 S8Z       0.143100
     28 C28         12.1190    -0.1030     4.8170 ca         1 S8Z      -0.182500
     29 C29         11.2790    -0.9370     4.2830 ca         1 S8Z      -0.072000
     30 O30         13.0410     1.7760     5.2140 os         1 S8Z      -0.246900
     31 C31         12.3400     2.7690     5.6890 c3         1 S8Z       0.558700
     32 F32         13.1480     3.1020     7.1350 f          1 S8Z      -0.245800
     33 F33         12.1810     4.0580     5.3990 f          1 S8Z      -0.245800
     34 H11C        -0.3610     0.5490    -0.8620 h1         1 S8Z       0.046033
     35 H12C        -0.3610    -1.0200    -0.0440 h1         1 S8Z       0.046033
     36 H13C        -0.3610     0.4720     0.9060 h1         1 S8Z       0.046033
     37 H31C         1.4200    -0.6260     1.9640 h1         1 S8Z       0.116700
     38 H32C         3.0210    -0.3860     1.2520 h1         1 S8Z       0.116700
     39 H7           6.5710     0.0620    -1.4250 ha         1 S8Z       0.171000
     40 H11          6.8120    -1.3400     2.4560 ha         1 S8Z       0.075000
     41 H8           8.7760     0.5010    -1.1590 ha         1 S8Z       0.131000
     42 H9           9.8470    -0.2750     0.3020 ha         1 S8Z       0.111000
     43 H151        12.0530    -3.4120    -0.1430 h1         1 S8Z       0.110700
     44 H152        10.7280    -3.8230    -1.2620 h1         1 S8Z       0.110700
     45 H171        10.3540    -6.1490     2.2400 h1         1 S8Z       0.092200
     46 H172        11.8360    -5.1740     2.1650 h1         1 S8Z       0.092200
     47 H211         7.2550    -4.3200     4.2930 hn         1 S8Z       0.474467
     48 H212         8.4610    -5.3630     3.9330 hn         1 S8Z       0.474467
     49 H25          9.6950     1.1220     2.3550 ha         1 S8Z       0.127500
     50 H29         11.4180    -1.9810     4.5380 ha         1 S8Z       0.127500
     51 H26         11.7180     2.3690     3.0610 ha         1 S8Z       0.166500
     52 H28         12.9660    -0.5670     5.3070 ha         1 S8Z       0.166500
     53 H31         11.3610     2.3750     5.9310 h3         1 S8Z       0.069700
     54 H213         7.4830    -4.6900     2.7580 hn         1 S8Z       0.474467
@<TRIPOS>BOND
     1     1     2 1
     2     2     3 1
     3     3     4 1
     4     4     5 3
     5     5     6 1
     6     6     7 ar
     7     6    11 ar
     8     7     8 ar
     9     8     9 ar
    10     9    10 ar
    11    10    11 ar
    12    10    12 1
    13    12    13 1
    14    12    20 1
    15    12    24 1
    16    13    14 2
    17    13    18 1
    18    14    15 1
    19    15    16 1
    20    16    17 1
    21    16    22 1
    22    16    23 1
    23    17    18 1
    24    18    19 1
    25    19    20 2
    26    19    21 1
    27    24    25 ar
    28    24    29 ar
    29    25    26 ar
    30    26    27 ar
    31    27    28 ar
    32    27    30 1
    33    28    29 ar
    34    30    31 1
    35    31    32 1
    36    31    33 1
    37     1    34 1
    38     1    35 1
    39     1    36 1
    40     3    37 1
    41     3    38 1
    42     7    39 1
    43    11    40 1
    44     8    41 1
    45     9    42 1
    46    15    43 1
    47    15    44 1
    48    17    45 1
    49    17    46 1
    50    21    47 1
    51    21    48 1
    52    25    49 1
    53    29    50 1
    54    26    51 1
    55    28    52 1
    56    31    53 1
    57    54    21 1
@<TRIPOS>SUBSTRUCTURE
     1 S8Z         1 TEMP              0 ****  ****    0 ROOT
