@<TRIPOS>MOLECULE
molecule
   52    54     1     0     0
SMALL
bcc


@<TRIPOS>ATOM
      1 F13          0.0000     0.0000     0.0000 f          1 S90      -0.143900
      2 C13          1.3510     0.0000     0.0000 ca         1 S90       0.175900
      3 C14          2.0430     0.0000     1.1980 ca         1 S90      -0.258000
      4 C15          3.4320    -0.0010     1.1950 ca         1 S90       0.234600
      5 N17          4.1340    -0.0020     2.4020 nh         1 S90      -0.697000
      6 C21          5.5940    -0.1170     2.4000 cx         1 S90       0.178500
      7 C23          6.2040    -1.3820     3.0080 cx         1 S90      -0.155900
      8 C22          6.3100    -0.0490     3.7510 cx         1 S90      -0.155900
      9 C17          3.4090     0.1130     3.6710 c3         1 S90       0.230800
     10 C18          3.0440    -1.2850     4.1780 c3         1 S90       0.122800
     11 N18          2.3180    -1.1700     5.4490 n7         1 S90      -0.822200
     12 C19          1.9510    -2.4950     5.9660 c3         1 S90       0.148100
     13 C12          2.0430    -0.0060    -1.2000 ca         1 S90      -0.223000
     14 C11          3.4260    -0.0070    -1.2040 ca         1 S90      -0.015300
     15 C16          4.1220    -0.0020    -0.0110 ca         1 S90      -0.214000
     16 C09          4.1740    -0.0130    -2.5110 c3         1 S90      -0.031100
     17 C08          4.4290     1.4260    -2.9610 c3         1 S90      -0.120700
     18 C06          5.1780     1.4200    -4.2680 ca         1 S90       0.477600
     19 N01          6.3160     0.7600    -4.3630 nb         1 S90      -0.773000
     20 C02          7.0080     0.7270    -5.4930 ca         1 S90       0.711200
     21 N02          8.2030     0.0190    -5.5490 nv         1 S90      -1.014500
     22 C03          6.5480     1.3940    -6.6240 ca         1 S90      -0.328300
     23 C04          5.3570     2.0940    -6.5550 ca         1 S90      -0.003300
     24 C07          4.8240     2.8280    -7.7580 c3         1 S90      -0.050800
     25 C05          4.6610     2.1000    -5.3540 ca         1 S90      -0.311300
     26 H14          1.5030    -0.0620     2.1350 ha         1 S90       0.143000
     27 H12          1.4990    -0.0100    -2.1370 ha         1 S90       0.143000
     28 H16          5.2050    -0.0030    -0.0160 ha         1 S90       0.140000
     29 H21          6.1510     0.3020     1.5710 h1         1 S90       0.099700
     30 H171         4.0370     0.6090     4.4010 h1         1 S90       0.062200
     31 H172         2.5050     0.6900     3.5200 h1         1 S90       0.062200
     32 H231         7.1170    -1.7310     2.5420 hc         1 S90       0.081450
     33 H232         5.4960    -2.0910     3.4190 hc         1 S90       0.081450
     34 H221         7.2880     0.4170     3.7390 hc         1 S90       0.081450
     35 H222         5.6660     0.0560     4.6160 hc         1 S90       0.081450
     36 H181         2.4170    -1.7810     3.4470 h1         1 S90       0.042700
     37 H182         3.9480    -1.8620     4.3290 h1         1 S90       0.042700
     38 H18          1.4910    -0.6240     5.3130 hn         1 S90       0.350800
     39 H191         1.3530    -2.3800     6.8630 h1         1 S90       0.032367
     40 H192         1.3790    -3.0290     5.2180 h1         1 S90       0.032367
     41 H193         2.8490    -3.0530     6.2010 h1         1 S90       0.032367
     42 H091         5.1200    -0.5240    -2.3820 hc         1 S90       0.061700
     43 H092         3.5850    -0.5270    -3.2610 hc         1 S90       0.061700
     44 H081         5.0180     1.9400    -2.2110 hc         1 S90       0.059200
     45 H082         3.4830     1.9370    -3.0900 hc         1 S90       0.059200
     46 H05          3.7240     2.6380    -5.2670 ha         1 S90       0.137000
     47 H021         8.5400    -0.4590    -4.7370 hn         1 S90       0.438300
     48 H022         8.7270    -0.0130    -6.4020 hn         1 S90       0.438300
     49 H03          7.1150     1.3660    -7.5470 ha         1 S90       0.133000
     50 H071         3.8820     2.3890    -8.0610 hc         1 S90       0.047367
     51 H072         5.5360     2.7540    -8.5710 hc         1 S90       0.047367
     52 H073         4.6720     3.8710    -7.5060 hc         1 S90       0.047367
@<TRIPOS>BOND
     1     1     2 1
     2     2     3 ar
     3     2    13 ar
     4     3     4 ar
     5     4     5 1
     6     4    15 ar
     7     5     6 1
     8     5     9 1
     9     6     7 1
    10     6     8 1
    11     7     8 1
    12     9    10 1
    13    10    11 1
    14    11    12 1
    15    13    14 ar
    16    14    15 ar
    17    14    16 1
    18    16    17 1
    19    17    18 1
    20    18    19 ar
    21    18    25 ar
    22    19    20 ar
    23    20    21 1
    24    20    22 ar
    25    22    23 ar
    26    23    24 1
    27    23    25 ar
    28     3    26 1
    29    13    27 1
    30    15    28 1
    31     6    29 1
    32     9    30 1
    33     9    31 1
    34     7    32 1
    35     7    33 1
    36     8    34 1
    37     8    35 1
    38    10    36 1
    39    10    37 1
    40    11    38 1
    41    12    39 1
    42    12    40 1
    43    12    41 1
    44    16    42 1
    45    16    43 1
    46    17    44 1
    47    17    45 1
    48    25    46 1
    49    21    47 1
    50    21    48 1
    51    22    49 1
    52    24    50 1
    53    24    51 1
    54    24    52 1
@<TRIPOS>SUBSTRUCTURE
     1 S90         1 TEMP              0 ****  ****    0 ROOT
