@<TRIPOS>MOLECULE
S91
   47    49     1     0     0
SMALL
bcc


@<TRIPOS>ATOM
      1 C1           0.0000     0.0000     0.0000 ca         1 S91       0.050700
      2 C2           1.3830     0.0000     0.0000 ca         1 S91      -0.087500
      3 C3           2.0760     0.0000     1.1950 ca         1 S91      -0.081500
      4 C4           1.3810    -0.0010     2.3980 ca         1 S91      -0.157400
      5 C5          -0.0090    -0.0070     2.3950 ca         1 S91      -0.081500
      6 C6          -0.6950    -0.0010     1.1960 ca         1 S91      -0.087500
      7 C7          -0.7520    -0.0000    -1.3060 c3         1 S91      -0.107100
      8 C8          -1.0020    -1.4210    -1.7410 c          1 S91       0.980600
      9 O1          -1.6610    -1.6670    -2.8850 o          1 S91      -0.880300
     10 O2          -0.6100    -2.3400    -1.0610 o          1 S91      -0.880300
     11 N1           2.1690     0.5370     5.8760 nb         1 S91      -0.779000
     12 C9           1.6980     1.1500     6.9550 ca         1 S91       0.638200
     13 C10          0.5250     1.9260     6.8380 ca         1 S91      -0.617200
     14 C11         -0.0830     2.0190     5.5810 ca         1 S91       0.517200
     15 N2           0.4520     1.3770     4.5600 nb         1 S91      -0.631000
     16 C12          1.5560     0.6520     4.7080 ca         1 S91       0.713900
     17 O3           0.5740     2.6500     9.0540 o          1 S91      -0.560100
     18 N4           2.0780    -0.0010     3.6090 nu         1 S91      -0.086300
     19 N5          -1.2350     3.2400     7.9090 nz         1 S91       0.215600
     20 C14          6.1320    -0.6860     8.3570 ca         1 S91      -0.096000
     21 C15          5.2600    -1.0500     7.3480 ca         1 S91      -0.075000
     22 C16          4.0020    -0.4840     7.2830 ca         1 S91      -0.131000
     23 C17          3.6120     0.4520     8.2330 ca         1 S91      -0.046400
     24 C18          4.4900     0.8110     9.2490 ca         1 S91      -0.120000
     25 C19          5.7490     0.2460     9.3040 ca         1 S91      -0.071300
     26 C20          6.7030     0.6410    10.4010 c3         1 S91       0.063200
     27 H2           1.9240     0.0010    -0.9390 ha         1 S91       0.117500
     28 H3           3.1590     0.0020     1.1940 ha         1 S91       0.100000
     29 H5          -0.5530    -0.0070     3.3320 ha         1 S91       0.100000
     30 H6          -1.7780    -0.0030     1.1930 ha         1 S91       0.117500
     31 H71         -1.6980     0.5100    -1.1780 hc         1 S91       0.021200
     32 H72         -0.1650     0.5100    -2.0600 hc         1 S91       0.021200
     33 H11         -0.9840     2.6060     5.4480 h4         1 S91      -0.048900
     34 HN3          1.8780     1.3100     9.0120 hn         1 S91       0.321800
     35 HN4          2.9540    -0.4810     3.6820 hn         1 S91       0.287800
     36 HN51        -1.5040     3.5870     8.8080 hn         1 S91       0.235467
     37 HN52        -1.1730     4.0020     7.2620 hn         1 S91       0.235467
     38 H16          3.3190    -0.7700     6.4930 ha         1 S91       0.164000
     39 H18          4.1900     1.5410     9.9910 ha         1 S91       0.109000
     40 H201         7.6840     0.2330    10.1910 hc         1 S91       0.010367
     41 H202         6.7650     1.7210    10.4550 hc         1 S91       0.010367
     42 H203         6.3450     0.2520    11.3480 hc         1 S91       0.010367
     43 N3           2.3410     1.0270     8.1700 nu         1 S91      -0.235300
     44 H14          7.1190    -1.1290     8.4040 ha         1 S91       0.112000
     45 H53         -1.9210     2.5870     7.5850 hn         1 S91       0.235467
     46 C13         -0.0400     2.6260     8.0040 c          1 S91       0.360700
     47 H15          5.5640    -1.7800     6.6080 ha         1 S91       0.109000
@<TRIPOS>BOND
     1     1     2 ar  
     2     1     6 ar  
     3     1     7 1   
     4     2     3 ar  
     5     2    27 1   
     6     3     4 ar  
     7     3    28 1   
     8     4     5 ar  
     9     4    18 1   
    10     5     6 ar  
    11     5    29 1   
    12     6    30 1   
    13     7     8 1   
    14     7    31 1   
    15     7    32 1   
    16     8     9 1   
    17     8    10 1   
    18    11    12 ar  
    19    11    16 ar  
    20    12    13 ar  
    21    12    43 1   
    22    13    14 ar  
    23    13    46 1   
    24    14    15 ar  
    25    14    33 1   
    26    15    16 ar  
    27    16    18 1   
    28    17    46 2   
    29    18    35 1   
    30    19    36 1   
    31    19    37 1   
    32    19    45 1   
    33    19    46 1   
    34    20    21 ar  
    35    20    25 ar  
    36    20    44 1   
    37    21    22 ar  
    38    21    47 1   
    39    22    23 ar  
    40    22    38 1   
    41    23    24 ar  
    42    23    43 1   
    43    24    25 ar  
    44    24    39 1   
    45    25    26 1   
    46    26    40 1   
    47    26    41 1   
    48    26    42 1   
    49    34    43 1   
@<TRIPOS>SUBSTRUCTURE
     1 S91         1 TEMP              0 ****  ****    0 ROOT
