@<TRIPOS>MOLECULE
molecule
   49    52     1     0     0
SMALL
bcc


@<TRIPOS>ATOM
      1 C18          0.0000     0.0000     0.0000 ca         1 S94      -0.130000
      2 C23          3.7390     7.7870    12.9060 ca         1 S94      -0.167000
      3 C16          1.3820     0.0000     0.0000 ca         1 S94      -0.124000
      4 C17         -0.6920     0.0050     1.1980 ca         1 S94      -0.124000
      5 C22          4.5290     7.3060    11.8790 ca         1 S94      -0.090500
      6 C24          2.4740     7.2680    13.1100 ca         1 S94      -0.090500
      7 C15          2.0740     0.0000     1.1970 ca         1 S94      -0.123500
      8 C14         -0.0000     0.0110     2.3940 ca         1 S94      -0.123500
      9 C21          4.0540     6.3080    11.0490 ca         1 S94      -0.192500
     10 C25          1.9940     6.2700    12.2830 ca         1 S94      -0.192500
     11 C10          1.3820     0.0000     2.3940 ca         1 S94      -0.047300
     12 C20          2.7820     5.7900    11.2490 ca         1 S94       0.142100
     13 C6           3.5880     2.9250     5.5820 c          1 S94       0.793100
     14 C4           2.7850     2.9060     9.0190 c3         1 S94      -0.114900
     15 C12          3.1350     5.2440     8.2050 c3         1 S94      -0.114900
     16 C3           3.6500    -0.2100     3.6420 cx         1 S94      -0.155400
     17 C9           3.7580     2.3760     7.9610 c3         1 S94       0.117500
     18 C13          4.1130     4.7410     7.1380 c3         1 S94       0.117500
     19 C2           2.1370     0.0060     3.7000 cx         1 S94      -0.106400
     20 C1           3.0870     1.1760     3.9610 cx         1 S94       0.091700
     21 C7           3.1990     4.3230     9.4240 c3         1 S94       0.145100
     22 N8           3.8120     3.3330     6.8470 n          1 S94      -0.512800
     23 N5           3.2070     1.6550     5.3400 ns         1 S94      -0.573900
     24 O11          3.7320     3.7030     4.6580 o          1 S94      -0.652100
     25 O19          2.3120     4.8080    10.4340 os         1 S94      -0.326900
     26 H1          -0.5420    -0.0020    -0.9380 ha         1 S94       0.129000
     27 H3           1.9240    -0.0020    -0.9380 ha         1 S94       0.130000
     28 H4          -1.7750     0.0090     1.1980 ha         1 S94       0.130000
     29 H5           5.5210     7.7130    11.7220 ha         1 S94       0.132000
     30 H6           1.8580     7.6450    13.9170 ha         1 S94       0.132000
     31 H7           3.1570    -0.0040     1.1970 ha         1 S94       0.131000
     32 H8          -0.5410     0.0130     3.3330 ha         1 S94       0.131000
     33 H9           4.6730     5.9330    10.2430 ha         1 S94       0.139500
     34 H10          1.0020     5.8650    12.4420 ha         1 S94       0.139500
     35 H11          2.8110     2.2600     9.8880 hc         1 S94       0.064700
     36 H12          1.7830     2.9270     8.6080 hc         1 S94       0.064700
     37 H13          3.4090     6.2500     8.4990 hc         1 S94       0.064700
     38 H14          2.1290     5.2400     7.8030 hc         1 S94       0.064700
     39 H15          4.0680    -0.3290     2.6500 hc         1 S94       0.080700
     40 H16          4.0780    -0.7450     4.4810 hc         1 S94       0.080700
     41 H17          3.4110     1.4160     7.5990 h1         1 S94       0.056700
     42 H18          4.7440     2.2710     8.3970 h1         1 S94       0.056700
     43 H19          4.0000     5.3300     6.2360 h1         1 S94       0.056700
     44 H20          5.1280     4.8250     7.5080 h1         1 S94       0.056700
     45 H21          1.6550    -0.3930     4.5840 hc         1 S94       0.083700
     46 H22          3.1580     1.8920     3.1500 h1         1 S94       0.132700
     47 H23          4.2130     4.3040     9.8060 h1         1 S94       0.049700
     48 H24          2.9830     1.0460     6.1020 hn         1 S94       0.313500
     49 H2           4.1130     8.5690    13.5550 ha         1 S94       0.130000
@<TRIPOS>BOND
     1     4     8 ar
     2     4     1 ar
     3     8    11 ar
     4     1     3 ar
     5    11    19 1
     6    11     7 ar
     7     3     7 ar
     8    19    16 1
     9    19    20 1
    10    16    20 1
    11    20    23 1
    12    23    13 1
    13    24    13 2
    14    13    22 1
    15    22    18 1
    16    22    17 1
    17    18    15 1
    18    15    21 1
    19    17    14 1
    20    14    21 1
    21    21    25 1
    22    25    12 1
    23    12     9 ar
    24    12    10 ar
    25     9     5 ar
    26    10     6 ar
    27     5     2 ar
    28     6     2 ar
    29     1    26 1
    30     2    49 1
    31     3    27 1
    32     4    28 1
    33     5    29 1
    34     6    30 1
    35     7    31 1
    36     8    32 1
    37     9    33 1
    38    10    34 1
    39    14    35 1
    40    14    36 1
    41    15    37 1
    42    15    38 1
    43    16    39 1
    44    16    40 1
    45    17    41 1
    46    17    42 1
    47    18    43 1
    48    18    44 1
    49    19    45 1
    50    20    46 1
    51    21    47 1
    52    23    48 1
@<TRIPOS>SUBSTRUCTURE
     1 S94         1 TEMP              0 ****  ****    0 ROOT
