@<TRIPOS>MOLECULE
S94
   49    52     1     0     0
SMALL
bcc


@<TRIPOS>ATOM
      1 C18          0.0000     0.0000     0.0000 ca         1 S94      -0.104000
      2 C23          3.7390     7.7870    12.9060 ca         1 S94      -0.145000
      3 C16          1.3820     0.0000     0.0000 ca         1 S94      -0.094500
      4 C17         -0.6920     0.0050     1.1980 ca         1 S94      -0.094500
      5 C22          4.5290     7.3060    11.8790 ca         1 S94      -0.056500
      6 C24          2.4740     7.2680    13.1100 ca         1 S94      -0.056500
      7 C15          2.0740     0.0000     1.1970 ca         1 S94      -0.101500
      8 C14         -0.0000     0.0110     2.3940 ca         1 S94      -0.101500
      9 C21          4.0540     6.3080    11.0490 ca         1 S94      -0.181500
     10 C25          1.9940     6.2700    12.2830 ca         1 S94      -0.181500
     11 C10          1.3820     0.0000     2.3940 ca         1 S94      -0.047300
     12 C20          2.7820     5.7900    11.2490 ca         1 S94       0.151100
     13 C6           3.5880     2.9250     5.5820 c          1 S94       0.600100
     14 C4           2.7850     2.9060     9.0190 c3         1 S94      -0.066900
     15 C12          3.1350     5.2440     8.2050 c3         1 S94      -0.066900
     16 C3           3.6500    -0.2100     3.6420 cx         1 S94      -0.106400
     17 C9           3.7580     2.3760     7.9610 c3         1 S94       0.064500
     18 C13          4.1130     4.7410     7.1380 c3         1 S94       0.064500
     19 C2           2.1370     0.0060     3.7000 cx         1 S94      -0.065400
     20 C1           3.0870     1.1760     3.9610 cx         1 S94      -0.017300
     21 C7           3.1990     4.3230     9.4240 c3         1 S94       0.166100
     22 N8           3.8120     3.3330     6.8470 n          1 S94      -0.184800
     23 N5           3.2070     1.6550     5.3400 ns         1 S94      -0.177900
     24 O11          3.7320     3.7030     4.6580 o          1 S94      -0.698100
     25 O19          2.3120     4.8080    10.4340 os         1 S94      -0.298900
     26 H1          -0.5420    -0.0020    -0.9380 ha         1 S94       0.102000
     27 H3           1.9240    -0.0020    -0.9380 ha         1 S94       0.102000
     28 H4          -1.7750     0.0090     1.1980 ha         1 S94       0.102000
     29 H5           5.5210     7.7130    11.7220 ha         1 S94       0.101000
     30 H6           1.8580     7.6450    13.9170 ha         1 S94       0.101000
     31 H7           3.1570    -0.0040     1.1970 ha         1 S94       0.109000
     32 H8          -0.5410     0.0130     3.3330 ha         1 S94       0.109000
     33 H9           4.6730     5.9330    10.2430 ha         1 S94       0.120500
     34 H10          1.0020     5.8650    12.4420 ha         1 S94       0.120500
     35 H11          2.8110     2.2600     9.8880 hc         1 S94       0.034950
     36 H12          1.7830     2.9270     8.6080 hc         1 S94       0.034950
     37 H13          3.4090     6.2500     8.4990 hc         1 S94       0.034950
     38 H14          2.1290     5.2400     7.8030 hc         1 S94       0.034950
     39 H15          4.0680    -0.3290     2.6500 hc         1 S94       0.053700
     40 H16          4.0780    -0.7450     4.4810 hc         1 S94       0.053700
     41 H17          3.4110     1.4160     7.5990 h1         1 S94       0.028700
     42 H18          4.7440     2.2710     8.3970 h1         1 S94       0.028700
     43 H19          4.0000     5.3300     6.2360 h1         1 S94       0.028700
     44 H20          5.1280     4.8250     7.5080 h1         1 S94       0.028700
     45 H21          1.6550    -0.3930     4.5840 hc         1 S94       0.057700
     46 H22          3.1580     1.8920     3.1500 h1         1 S94       0.105700
     47 H23          4.2130     4.3040     9.8060 h1         1 S94       0.026700
     48 H24          2.9830     1.0460     6.1020 hn         1 S94       0.174500
     49 H2           4.1130     8.5690    13.5550 ha         1 S94       0.105000
@<TRIPOS>BOND
     1     1     3 ar  
     2     1     4 ar  
     3     1    26 1   
     4     2     5 ar  
     5     2     6 ar  
     6     2    49 1   
     7     3     7 ar  
     8     3    27 1   
     9     4     8 ar  
    10     4    28 1   
    11     5     9 ar  
    12     5    29 1   
    13     6    10 ar  
    14     6    30 1   
    15     7    11 ar  
    16     7    31 1   
    17     8    11 ar  
    18     8    32 1   
    19     9    12 ar  
    20     9    33 1   
    21    10    12 ar  
    22    10    34 1   
    23    11    19 1   
    24    12    25 1   
    25    13    22 1   
    26    13    23 1   
    27    13    24 2   
    28    14    17 1   
    29    14    21 1   
    30    14    35 1   
    31    14    36 1   
    32    15    18 1   
    33    15    21 1   
    34    15    37 1   
    35    15    38 1   
    36    16    19 1   
    37    16    20 1   
    38    16    39 1   
    39    16    40 1   
    40    17    22 1   
    41    17    41 1   
    42    17    42 1   
    43    18    22 1   
    44    18    43 1   
    45    18    44 1   
    46    19    20 1   
    47    19    45 1   
    48    20    23 1   
    49    20    46 1   
    50    21    25 1   
    51    21    47 1   
    52    23    48 1   
@<TRIPOS>SUBSTRUCTURE
     1 S94         1 TEMP              0 ****  ****    0 ROOT
