@<TRIPOS>MOLECULE
S97
   57    60     1     0     0
SMALL
bcc


@<TRIPOS>ATOM
      1 C29          0.0000     0.0000     0.0000 c3         1 S97       0.059200
      2 C26          1.5060     0.0000     0.0000 ca         1 S97      -0.042300
      3 C27          2.2160     0.0000     1.1940 ca         1 S97      -0.220300
      4 C25          2.2140    -0.0060    -1.1890 ca         1 S97      -0.217300
      5 C24          3.6040    -0.0070    -1.1480 ca         1 S97       0.508200
      6 N28          4.3280    -0.0130    -2.3350 nv         1 S97      -0.660500
      7 N23          4.2460     0.0000     0.0110 nb         1 S97      -0.604000
      8 C22          3.5970     0.0000     1.1600 ca         1 S97       0.366600
      9 C21          4.3730     0.0010     2.4520 c3         1 S97      -0.057700
     10 C20          5.3440    -1.1800     2.4640 c3         1 S97       0.020900
     11 C16          6.1190    -1.1800     3.7560 ca         1 S97      -0.059300
     12 C17          5.6340    -1.8660     4.8540 ca         1 S97      -0.046000
     13 C15          7.3190    -0.4980     3.8420 ca         1 S97      -0.080000
     14 C14          8.0300    -0.4970     5.0270 ca         1 S97      -0.210300
     15 C18          9.3380     0.2460     5.1210 c3         1 S97       0.040100
     16 N19          9.0870     1.6270     5.5560 nz         1 S97       0.072400
     17 C13          7.5420    -1.1770     6.1270 ca         1 S97      -0.079000
     18 C12          6.3450    -1.8650     6.0390 ca         1 S97      -0.059300
     19 C11          5.8160    -2.6120     7.2360 c3         1 S97       0.021900
     20 C10          6.3460    -4.0470     7.2160 c3         1 S97      -0.057700
     21 C07          5.8180    -4.7950     8.4130 ca         1 S97       0.371600
     22 N06          6.0180    -4.3030     9.6170 nb         1 S97      -0.586000
     23 C05          5.5740    -4.9200    10.7040 ca         1 S97       0.229800
     24 N01          5.6450    -4.6310    12.0460 na         1 S97       0.257900
     25 C02          5.0160    -5.6070    12.7700 cc         1 S97      -0.257100
     26 C03          4.5250    -6.5440    11.9450 cd         1 S97      -0.143200
     27 C04          4.8680    -6.1320    10.5830 ca         1 S97      -0.218100
     28 C09          4.6440    -6.6730     9.3140 ca         1 S97       0.005000
     29 C08          5.1260    -5.9810     8.2190 ca         1 S97      -0.249300
     30 H291        -0.3610    -0.9940     0.2330 hc         1 S97       0.015367
     31 H292        -0.3610     0.6990     0.7450 hc         1 S97       0.015367
     32 H293        -0.3610     0.2960    -0.9780 hc         1 S97       0.015367
     33 H27          1.6920     0.0000     2.1420 ha         1 S97       0.118000
     34 H25          1.7000    -0.1870    -2.1250 ha         1 S97       0.128000
     35 H281         4.5760     0.8510    -2.7750 hn         1 S97       0.280300
     36 H282         4.6210    -0.8810    -2.7380 hn         1 S97       0.280300
     37 H211         4.9290     0.9270     2.5380 hc         1 S97       0.016700
     38 H212         3.6860    -0.0870     3.2850 hc         1 S97       0.016700
     39 H201         4.7880    -2.1060     2.3770 hc         1 S97       0.039700
     40 H202         6.0310    -1.0920     1.6310 hc         1 S97       0.039700
     41 H17          4.6970    -2.4050     4.7850 ha         1 S97       0.129000
     42 H15          7.7210     0.0020     2.9690 ha         1 S97       0.115000
     43 H181         9.8180     0.2550     4.1500 hx         1 S97       0.080700
     44 H182         9.9830    -0.2470     5.8380 hx         1 S97       0.080700
     45 H13          8.1000    -1.1760     7.0560 ha         1 S97       0.113000
     46 H191         9.9600     2.0870     5.7240 hn         1 S97       0.222467
     47 H192         8.5830     2.1150     4.8430 hn         1 S97       0.222467
     48 H111         4.7330    -2.6270     7.2030 hc         1 S97       0.034200
     49 H112         6.1430    -2.1190     8.1430 hc         1 S97       0.034200
     50 H101         6.0190    -4.5400     6.3090 hc         1 S97       0.022700
     51 H102         7.4290    -4.0330     7.2490 hc         1 S97       0.022700
     52 H08          4.8470    -6.2880     7.2180 ha         1 S97       0.117000
     53 H01          6.0910    -3.8240    12.4350 hn         1 S97       0.117700
     54 H02          4.9270    -5.6210    13.8500 h4         1 S97       0.147000
     55 H03          3.9790    -7.4350    12.2320 ha         1 S97       0.136000
     56 H09          4.1000    -7.6020     9.1910 ha         1 S97       0.112000
     57 H193         8.5430     1.6180     6.3960 hn         1 S97       0.222467
@<TRIPOS>BOND
     1     1     2 1   
     2     1    30 1   
     3     1    31 1   
     4     1    32 1   
     5     2     3 ar  
     6     2     4 ar  
     7     3     8 ar  
     8     3    33 1   
     9     4     5 ar  
    10     4    34 1   
    11     5     6 1   
    12     5     7 ar  
    13     6    35 1   
    14     6    36 1   
    15     7     8 ar  
    16     8     9 1   
    17     9    10 1   
    18     9    37 1   
    19     9    38 1   
    20    10    11 1   
    21    10    39 1   
    22    10    40 1   
    23    11    12 ar  
    24    11    13 ar  
    25    12    18 ar  
    26    12    41 1   
    27    13    14 ar  
    28    13    42 1   
    29    14    15 1   
    30    14    17 ar  
    31    15    16 1   
    32    15    43 1   
    33    15    44 1   
    34    16    46 1   
    35    16    47 1   
    36    16    57 1   
    37    17    18 ar  
    38    17    45 1   
    39    18    19 1   
    40    19    20 1   
    41    19    48 1   
    42    19    49 1   
    43    20    21 1   
    44    20    50 1   
    45    20    51 1   
    46    21    22 ar  
    47    21    29 ar  
    48    22    23 ar  
    49    23    24 1   
    50    23    27 ar  
    51    24    25 1   
    52    24    53 1   
    53    25    26 2   
    54    25    54 1   
    55    26    27 1   
    56    26    55 1   
    57    27    28 ar  
    58    28    29 ar  
    59    28    56 1   
    60    29    52 1   
@<TRIPOS>SUBSTRUCTURE
     1 S97         1 TEMP              0 ****  ****    0 ROOT
