@<TRIPOS>MOLECULE
molecule
   57    60     1     0     0
SMALL
bcc


@<TRIPOS>ATOM
      1 C29          0.0000     0.0000     0.0000 c3         1 S97      -0.052800
      2 C26          1.5060     0.0000     0.0000 ca         1 S97      -0.035300
      3 C27          2.2160     0.0000     1.1940 ca         1 S97      -0.256300
      4 C25          2.2140    -0.0060    -1.1890 ca         1 S97      -0.250300
      5 C24          3.6040    -0.0070    -1.1480 ca         1 S97       0.688200
      6 N28          4.3280    -0.0130    -2.3350 nv         1 S97      -1.084500
      7 N23          4.2460     0.0000     0.0110 nb         1 S97      -0.731000
      8 C22          3.5970     0.0000     1.1600 ca         1 S97       0.423600
      9 C21          4.3730     0.0010     2.4520 c3         1 S97      -0.114700
     10 C20          5.3440    -1.1800     2.4640 c3         1 S97      -0.039100
     11 C16          6.1190    -1.1800     3.7560 ca         1 S97      -0.060300
     12 C17          5.6340    -1.8660     4.8540 ca         1 S97      -0.080000
     13 C15          7.3190    -0.4980     3.8420 ca         1 S97      -0.110000
     14 C14          8.0300    -0.4970     5.0270 ca         1 S97      -0.194300
     15 C18          9.3380     0.2460     5.1210 c3         1 S97       0.160100
     16 N19          9.0870     1.6270     5.5560 nz         1 S97      -0.810600
     17 C13          7.5420    -1.1770     6.1270 ca         1 S97      -0.111000
     18 C12          6.3450    -1.8650     6.0390 ca         1 S97      -0.061300
     19 C11          5.8160    -2.6120     7.2360 c3         1 S97      -0.039100
     20 C10          6.3460    -4.0470     7.2160 c3         1 S97      -0.113700
     21 C07          5.8180    -4.7950     8.4130 ca         1 S97       0.440600
     22 N06          6.0180    -4.3030     9.6170 nb         1 S97      -0.730000
     23 C05          5.5740    -4.9200    10.7040 ca         1 S97       0.468800
     24 N01          5.6450    -4.6310    12.0460 na         1 S97      -0.282100
     25 C02          5.0160    -5.6070    12.7700 cc         1 S97      -0.087100
     26 C03          4.5250    -6.5440    11.9450 cd         1 S97      -0.188200
     27 C04          4.8680    -6.1320    10.5830 ca         1 S97      -0.215100
     28 C09          4.6440    -6.6730     9.3140 ca         1 S97      -0.035000
     29 C08          5.1260    -5.9810     8.2190 ca         1 S97      -0.278300
     30 H291        -0.3610    -0.9940     0.2330 hc         1 S97       0.053033
     31 H292        -0.3610     0.6990     0.7450 hc         1 S97       0.053033
     32 H293        -0.3610     0.2960    -0.9780 hc         1 S97       0.053033
     33 H27          1.6920     0.0000     2.1420 ha         1 S97       0.138000
     34 H25          1.7000    -0.1870    -2.1250 ha         1 S97       0.153000
     35 H281         4.5760     0.8510    -2.7750 hn         1 S97       0.439300
     36 H282         4.6210    -0.8810    -2.7380 hn         1 S97       0.439300
     37 H211         4.9290     0.9270     2.5380 hc         1 S97       0.050200
     38 H212         3.6860    -0.0870     3.2850 hc         1 S97       0.050200
     39 H201         4.7880    -2.1060     2.3770 hc         1 S97       0.074700
     40 H202         6.0310    -1.0920     1.6310 hc         1 S97       0.074700
     41 H17          4.6970    -2.4050     4.7850 ha         1 S97       0.159000
     42 H15          7.7210     0.0020     2.9690 ha         1 S97       0.139000
     43 H181         9.8180     0.2550     4.1500 hx         1 S97       0.110700
     44 H182         9.9830    -0.2470     5.8380 hx         1 S97       0.110700
     45 H13          8.1000    -1.1760     7.0560 ha         1 S97       0.137000
     46 H191         9.9600     2.0870     5.7240 hn         1 S97       0.453467
     47 H192         8.5830     2.1150     4.8430 hn         1 S97       0.453467
     48 H111         4.7330    -2.6270     7.2030 hc         1 S97       0.069200
     49 H112         6.1430    -2.1190     8.1430 hc         1 S97       0.069200
     50 H101         6.0190    -4.5400     6.3090 hc         1 S97       0.057700
     51 H102         7.4290    -4.0330     7.2490 hc         1 S97       0.057700
     52 H08          4.8470    -6.2880     7.2180 ha         1 S97       0.139000
     53 H01          6.0910    -3.8240    12.4350 hn         1 S97       0.302700
     54 H02          4.9270    -5.6210    13.8500 h4         1 S97       0.177000
     55 H03          3.9790    -7.4350    12.2320 ha         1 S97       0.164000
     56 H09          4.1000    -7.6020     9.1910 ha         1 S97       0.146000
     57 H193         8.5430     1.6180     6.3960 hn         1 S97       0.453467
@<TRIPOS>BOND
     1     1     2 1
     2     2     3 ar
     3     2     4 ar
     4     3     8 ar
     5     4     5 ar
     6     5     6 1
     7     5     7 ar
     8     7     8 ar
     9     8     9 1
    10     9    10 1
    11    10    11 1
    12    11    12 ar
    13    11    13 ar
    14    12    18 ar
    15    13    14 ar
    16    14    15 1
    17    14    17 ar
    18    15    16 1
    19    17    18 ar
    20    18    19 1
    21    19    20 1
    22    20    21 1
    23    21    22 ar
    24    21    29 ar
    25    22    23 ar
    26    23    24 1
    27    23    27 ar
    28    24    25 1
    29    25    26 2
    30    26    27 1
    31    27    28 ar
    32    28    29 ar
    33     1    30 1
    34     1    31 1
    35     1    32 1
    36     3    33 1
    37     4    34 1
    38     6    35 1
    39     6    36 1
    40     9    37 1
    41     9    38 1
    42    10    39 1
    43    10    40 1
    44    12    41 1
    45    13    42 1
    46    15    43 1
    47    15    44 1
    48    17    45 1
    49    16    46 1
    50    16    47 1
    51    19    48 1
    52    19    49 1
    53    20    50 1
    54    20    51 1
    55    29    52 1
    56    24    53 1
    57    25    54 1
    58    26    55 1
    59    28    56 1
    60    57    16 1
@<TRIPOS>SUBSTRUCTURE
     1 S97         1 TEMP              0 ****  ****    0 ROOT
