@<TRIPOS>MOLECULE
molecule
   35    38     1     0     0
SMALL
bcc


@<TRIPOS>ATOM
      1 N2           0.0000     0.0000     0.0000 na         1 S98      -0.289300
      2 C3           1.3900     0.0000     0.0000 ca         1 S98      -0.081200
      3 C12          1.7800     0.0000     1.3560 ca         1 S98       0.168400
      4 N13          0.6420     0.0010     2.0960 nc         1 S98      -0.667100
      5 C1          -0.4020     0.0000     1.3050 cd         1 S98       0.718700
      6 N14         -1.7130     0.0020     1.7260 nu         1 S98      -0.854200
      7 C15         -2.7990     0.0020     0.7420 c3         1 S98       0.314100
      8 C16         -4.1250     0.0040     1.4590 cc         1 S98      -0.098400
      9 C11          3.1330    -0.0010     1.6950 ca         1 S98      -0.026000
     10 C10          4.0940    -0.0020     0.6910 ca         1 S98       0.120400
     11 C5           3.6900    -0.0020    -0.6690 ca         1 S98      -0.184600
     12 C6           4.7350    -0.0040    -1.6990 c          1 S98       0.726100
     13 O21          4.4530    -0.0040    -2.8840 o          1 S98      -0.565500
     14 N7           6.0240    -0.0050    -1.2870 ns         1 S98      -0.486400
     15 C8           6.3270    -0.0050     0.0440 cc         1 S98       0.439800
     16 N22          7.6500    -0.0060     0.4140 nz         1 S98      -0.730600
     17 N9           5.4190    -0.0030     0.9850 nd         1 S98      -0.537100
     18 C4           2.3380    -0.0010    -1.0020 ca         1 S98      -0.031000
     19 C121        -4.8000     1.0940     1.8240 cd         1 S98      -0.113000
     20 C13         -5.9990     0.8480     2.4710 cd         1 S98      -0.166000
     21 C14         -6.2980    -0.4430     2.6310 cc         1 S98      -0.041100
     22 S1          -5.0220    -1.4330     1.9340 ss         1 S98      -0.128800
     23 HN2         -0.5940    -0.0000    -0.8050 hn         1 S98       0.320700
     24 HN14        -1.9240    -0.0110     2.7040 hn         1 S98       0.489800
     25 H15         -2.7250    -0.8830     0.1220 h1         1 S98       0.052200
     26 H15A        -2.7230     0.8860     0.1210 h1         1 S98       0.052200
     27 H11          3.4310    -0.1120     2.7310 ha         1 S98       0.174000
     28 HN7          6.7620    -0.0060    -1.9630 hn         1 S98       0.339500
     29 HN22         7.7180     0.0030     1.4120 hn         1 S98       0.473800
     30 HN2A         8.0950    -0.8290     0.0570 hn         1 S98       0.473800
     31 H4           2.0340     0.1230    -2.0350 ha         1 S98       0.169000
     32 H111        -4.4380     2.0960     1.6290 ha         1 S98       0.153000
     33 H13         -6.6460     1.6430     2.8230 ha         1 S98       0.161000
     34 H151        -7.1910    -0.8220     3.1120 h4         1 S98       0.183000
     35 H223         8.1000     0.8080     0.0460 hn         1 S98       0.473800
@<TRIPOS>BOND
     1     1     2 1
     2     1     5 1
     3     2     3 ar
     4     2    18 ar
     5     3     4 1
     6     3     9 ar
     7     4     5 2
     8     5     6 1
     9     6     7 1
    10     7     8 1
    11     8    19 2
    12     8    22 1
    13     9    10 ar
    14    10    11 ar
    15    10    17 1
    16    11    12 1
    17    11    18 ar
    18    12    13 2
    19    12    14 1
    20    14    15 1
    21    15    16 1
    22    15    17 2
    23    19    20 1
    24    20    21 2
    25    21    22 1
    26     1    23 1
    27     6    24 1
    28     7    25 1
    29     7    26 1
    30     9    27 1
    31    14    28 1
    32    16    29 1
    33    16    30 1
    34    18    31 1
    35    19    32 1
    36    20    33 1
    37    21    34 1
    38    35    16 1
@<TRIPOS>SUBSTRUCTURE
     1 S98         1 TEMP              0 ****  ****    0 ROOT
