@<TRIPOS>MOLECULE
S99
   50    52     1     0     0
SMALL
bcc


@<TRIPOS>ATOM
      1 CAI        -0.1490    0.4950   -0.4700 ca        1 S99     -0.128000
      2 CAE         1.2300    0.5750   -0.6580 ca        1 S99     -0.128500
      3 CAC         2.0990    0.2980    0.3970 ca        1 S99     -0.134000
      4 CAF         1.5840   -0.0590    1.6430 ca        1 S99     -0.128500
      5 CAJ         0.2060   -0.1390    1.8340 ca        1 S99     -0.128000
      6 CAV        -0.6720    0.1370    0.7780 ca        1 S99     -0.076300
      7 CAQ        -2.1430    0.0590    0.9890 c3        1 S99     -0.038100
      8 CAO        -2.6210   -1.3780    1.0910 c3        1 S99     -0.076400
      9 CAM        -4.1120   -1.4380    1.3420 c3        1 S99     -0.079400
     10 CAN        -4.5930   -2.8700    1.4390 c3        1 S99     -0.078400
     11 CAP        -6.0840   -2.9270    1.6940 c3        1 S99     -0.077400
     12 CAR        -6.5600   -4.3590    1.7890 c3        1 S99     -0.048400
     13 CAZ        -8.0690   -4.4380    2.0490 c3        1 S99      0.344300
     14 OAA        -8.3670   -3.7450    3.2390 oh        1 S99     -0.598800
     15 OXT        -8.7490   -3.7630    1.0170 oh        1 S99     -0.598800
     16 CAY        -8.5400   -5.8770    2.1420 cc        1 S99      0.413700
     17 NAT        -9.7620   -6.3580    2.3570 nd        1 S99     -0.667000
     18 OAU        -7.5830   -6.8940    1.9840 os        1 S99     -0.359800
     19 CAL        -8.2900   -8.0830    2.1150 cc        1 S99      0.215300
     20 CAX        -9.6300   -7.7640    2.3450 cd        1 S99      0.174000
     21 CAW       -10.7350   -8.6980    2.5430 ca        1 S99      0.382300
     22 CAK       -12.0440   -8.2170    2.7680 ca        1 S99     -0.213300
     23 CAG       -13.0770   -9.1390    2.9540 ca        1 S99     -0.096000
     24 CAD       -12.7880  -10.5020    2.9120 ca        1 S99     -0.243300
     25 CAH       -11.4540  -10.8910    2.6830 ca        1 S99      0.399200
     26 NAS       -10.4430  -10.0290    2.5010 nb        1 S99     -0.672000
     27 HAI        -0.8300    0.7150   -1.3060 ha        1 S99      0.131000
     28 HAE         1.6330    0.8570   -1.6420 ha        1 S99      0.130000
     29 HAC         3.1860    0.3620    0.2470 ha        1 S99      0.130000
     30 HAF         2.2660   -0.2770    2.4780 ha        1 S99      0.130000
     31 HAJ        -0.1990   -0.4200    2.8170 ha        1 S99      0.131000
     32 HAQ1       -2.4120    0.6070    1.9320 hc        1 S99      0.047700
     33 HAQ2       -2.6810    0.5690    0.1450 hc        1 S99      0.047700
     34 HAO1       -2.3750   -1.9240    0.1430 hc        1 S99      0.044200
     35 HAO2       -2.0750   -1.8950    1.9240 hc        1 S99      0.044200
     36 HAM1       -4.6560   -0.9150    0.5110 hc        1 S99      0.041700
     37 HAM2       -4.3580   -0.8930    2.2920 hc        1 S99      0.041700
     38 HAN1       -4.3510   -3.4130    0.4880 hc        1 S99      0.039700
     39 HAN2       -4.0480   -3.3940    2.2680 hc        1 S99      0.039700
     40 HAP1       -6.3330   -2.3900    2.6480 hc        1 S99      0.059700
     41 HAP2       -6.6370   -2.4070    0.8670 hc        1 S99      0.059700
     42 HAR1       -6.3500   -4.9070    0.8340 hc        1 S99      0.066700
     43 HAR2       -6.0420   -4.8920    2.6280 hc        1 S99      0.066700
     44 HAL        -7.7140   -8.9980    2.0220 h4        1 S99      0.084100
     45 HAK       -12.2490   -7.1380    2.7970 ha        1 S99      0.160000
     46 HAG       -14.1040   -8.7890    3.1310 ha        1 S99      0.141000
     47 HAD       -13.5710  -11.2570    3.0540 ha        1 S99      0.146000
     48 HAH       -11.1780  -11.9600    2.6410 h4        1 S99      0.023100
     49 HAA        -9.3110   -3.8290    3.4230 ho        1 S99      0.419000
     50 HXT        -9.7000   -3.8490    1.1590 ho        1 S99      0.419000
@<TRIPOS>BOND
     1    1    2 ar
     2    1    6 ar
     3    1   27 1
     4    2    3 ar
     5    2   28 1
     6    3    4 ar
     7    3   29 1
     8    4    5 ar
     9    4   30 1
    10    5    6 ar
    11    5   31 1
    12    6    7 1
    13    7    8 1
    14    7   32 1
    15    7   33 1
    16    8    9 1
    17    8   34 1
    18    8   35 1
    19    9   10 1
    20    9   36 1
    21    9   37 1
    22   10   11 1
    23   10   38 1
    24   10   39 1
    25   11   12 1
    26   11   40 1
    27   11   41 1
    28   12   13 1
    29   12   42 1
    30   12   43 1
    31   13   14 1
    32   13   15 1
    33   13   16 1
    34   14   49 1
    35   15   50 1
    36   16   17 2
    37   16   18 1
    38   17   20 1
    39   18   19 1
    40   19   20 2
    41   19   44 1
    42   20   21 1
    43   21   22 ar
    44   21   26 ar
    45   22   23 ar
    46   22   45 1
    47   23   24 ar
    48   23   46 1
    49   24   25 ar
    50   24   47 1
    51   25   26 ar
    52   25   48 1
@<TRIPOS>SUBSTRUCTURE
     1 S99         1 TEMP              0 ****  ****    0 ROOT
