@<TRIPOS>MOLECULE
S9L
   27    26     1     0     0
SMALL
bcc


@<TRIPOS>ATOM
      1 O3P         1.5430    3.1800   -1.2340 o         1 S9L     -0.923500
      2 P           0.9060    1.9530   -0.6160 p5        1 S9L      1.318900
      3 O1P         0.3170    2.2010    0.7460 o         1 S9L     -0.923500
      4 O2P         0.1590    1.0440   -1.5450 o         1 S9L     -0.923500
      5 O5'         2.3180    1.0200   -0.2290 os        1 S9L     -0.569200
      6 C12         2.9910    1.4240    0.8940 c3        1 S9L      0.195400
      7 C22         4.3810    1.9840    0.5360 c3        1 S9L      0.095400
      8 OH3         4.5920    3.3120    1.0230 os        1 S9L     -0.483600
      9 C13         4.4620    4.9740   -0.7340 c3        1 S9L      0.115400
     10 C23         3.7470    4.2820    0.4130 c3        1 S9L      0.032400
     11 OH4         5.4230    5.9640   -0.3340 os        1 S9L     -0.471600
     12 C14         6.3770    5.8350    1.8690 c3        1 S9L      0.103400
     13 C24         6.5250    5.4560    0.3980 c3        1 S9L      0.103400
     14 O3'         6.1490    7.2250    2.0300 oh        1 S9L     -0.636800
     15 H121        3.1640    0.5320    1.5700 h1        1 S9L      0.001700
     16 H122        2.4030    2.1940    1.4720 h1        1 S9L      0.001700
     17 H221        4.5310    1.9650   -0.5750 h1        1 S9L      0.013700
     18 H222        5.1990    1.4000    1.0380 h1        1 S9L      0.013700
     19 H131        4.9680    4.2200   -1.3900 h1        1 S9L      0.054700
     20 H132        3.7200    5.5690   -1.3310 h1        1 S9L      0.054700
     21 H231        2.7810    3.8080   -0.0100 h1        1 S9L      0.116700
     22 H232        3.5080    5.0140    1.2280 h1        1 S9L      0.116700
     23 H141        5.5270    5.2540    2.3200 h1        1 S9L      0.048200
     24 H142        7.3260    5.6280    2.4280 h1        1 S9L      0.048200
     25 H241        7.4310    5.9550   -0.0410 h1        1 S9L      0.039700
     26 H242        6.6100    4.3420    0.3040 h1        1 S9L      0.039700
     27 HO3'        5.4310    7.4500    1.4220 ho        1 S9L      0.418000
@<TRIPOS>BOND
     1    1    2 1   
     2    2    3 1   
     3    2    4 1   
     4    2    5 1   
     5    5    6 1   
     6    6    7 1   
     7    6   15 1   
     8    6   16 1   
     9    7    8 1   
    10    7   17 1   
    11    7   18 1   
    12    8   10 1   
    13    9   10 1   
    14    9   11 1   
    15    9   19 1   
    16    9   20 1   
    17   10   21 1   
    18   10   22 1   
    19   11   13 1   
    20   12   13 1   
    21   12   14 1   
    22   12   23 1   
    23   12   24 1   
    24   13   25 1   
    25   13   26 1   
    26   14   27 1   
@<TRIPOS>SUBSTRUCTURE
     1 S9L         1 TEMP              0 ****  ****    0 ROOT
