@<TRIPOS>MOLECULE
molecule
   27    26     1     0     0
SMALL
bcc


@<TRIPOS>ATOM
      1 O3P          0.0000     0.0000     0.0000 o          1 S9L      -0.913833
      2 P            1.6170     0.0000     0.0000 p5         1 S9L       1.171900
      3 O1P          1.9890     0.0000     1.5740 o          1 S9L      -0.913833
      4 O2P          2.2590    -1.0930    -0.8020 o          1 S9L      -0.913833
      5 O5'          2.0010     1.5040    -0.4620 os         1 S9L      -0.577200
      6 C12          1.4360     2.5940     0.2460 c3         1 S9L       0.223400
      7 C22          1.9370     3.8900    -0.3600 c3         1 S9L       0.118400
      8 OH3          3.3540     3.9410    -0.2440 os         1 S9L      -0.363600
      9 C13          5.3890     5.1270    -0.6630 c3         1 S9L       0.135400
     10 C23          3.8800     5.1290    -0.8180 c3         1 S9L       0.134400
     11 OH4          5.7130     5.0930     0.7220 os         1 S9L      -0.374600
     12 C14          7.4010     5.0310     2.4160 c3         1 S9L       0.140400
     13 C24          7.1180     5.0670     0.9270 c3         1 S9L       0.140400
     14 O3'          6.8630     6.2030     3.0180 oh         1 S9L      -0.598800
     15 H121         1.7320     2.5420     1.2870 h1         1 S9L       0.039200
     16 H122         0.3560     2.5520     0.1740 h1         1 S9L       0.039200
     17 H221         1.6570     3.9330    -1.4060 h1         1 S9L      -0.009300
     18 H222         1.4990     4.7290     0.1660 h1         1 S9L      -0.009300
     19 H131         5.8010     6.0230    -1.1100 h1         1 S9L       0.017200
     20 H132         5.8030     4.2540    -1.1530 h1         1 S9L       0.017200
     21 H231         3.6240     5.1680    -1.8690 h1         1 S9L       0.009700
     22 H232         3.4650     5.9920    -0.3110 h1         1 S9L       0.009700
     23 H141         8.4710     4.9970     2.5820 h1         1 S9L       0.027700
     24 H142         6.9380     4.1540     2.8520 h1         1 S9L       0.027700
     25 H241         7.5370     4.1850     0.4570 h1         1 S9L       0.018700
     26 H242         7.5640     5.9540     0.4940 h1         1 S9L       0.018700
     27 HO3'         7.1160     6.2350     3.9260 ho         1 S9L       0.386000
@<TRIPOS>BOND
     1     1     2 1
     2     2     4 1
     3     2     3 1
     4     2     5 1
     5     5     6 1
     6     6     7 1
     7     6    15 1
     8     6    16 1
     9     7     8 1
    10     7    17 1
    11     7    18 1
    12     8    10 1
    13     9    10 1
    14     9    11 1
    15     9    19 1
    16     9    20 1
    17    10    21 1
    18    10    22 1
    19    11    13 1
    20    12    13 1
    21    12    14 1
    22    12    23 1
    23    12    24 1
    24    13    25 1
    25    13    26 1
    26    14    27 1
@<TRIPOS>SUBSTRUCTURE
     1 S9L         1 TEMP              0 ****  ****    0 ROOT
