@<TRIPOS>MOLECULE
S9T
   50    52     1     0     0
SMALL
bcc


@<TRIPOS>ATOM
      1 C21          0.0000     0.0000     0.0000 c3         1 S9T       0.241700
      2 O19          1.4280     0.0000     0.0000 os         1 S9T      -0.292900
      3 C6           2.0460     0.0000     1.2120 ca         1 S9T       0.117100
      4 C5           3.4360    -0.0000     1.2880 ca         1 S9T       0.121100
      5 O18          4.1830    -0.0020     0.1510 os         1 S9T      -0.293900
      6 C20          5.6030    -0.0020     0.3080 c3         1 S9T       0.241700
      7 C4           4.0540     0.0020     2.5250 ca         1 S9T      -0.182000
      8 C3           3.2970     0.0050     3.6880 ca         1 S9T      -0.063300
      9 C7           1.2960     0.0070     2.3740 ca         1 S9T      -0.185000
     10 C8           1.9210     0.0010     3.6130 ca         1 S9T      -0.077300
     11 C9           1.0580    -0.0070     4.8480 c3         1 S9T       0.190800
     12 C11         -0.1150     0.9560     4.6510 c3         1 S9T       0.028900
     13 C12         -1.0470     0.8610     5.8320 ca         1 S9T      -0.097300
     14 N10          1.8350     0.4100     6.0190 n7         1 S9T      -0.587200
     15 C1           3.0610    -0.3960     6.1310 c3         1 S9T       0.144800
     16 C2           4.0170     0.0190     5.0120 c3         1 S9T       0.037900
     17 C17         -0.8570     1.6810     6.9290 ca         1 S9T      -0.096000
     18 C16         -1.7090     1.5960     8.0140 ca         1 S9T      -0.177000
     19 C15         -2.7570     0.6890     8.0030 ca         1 S9T       0.116100
     20 O23         -3.5930     0.6020     9.0720 os         1 S9T      -0.293900
     21 C25         -3.3370     1.4790    10.1710 c3         1 S9T       0.241700
     22 C14         -2.9470    -0.1360     6.9000 ca         1 S9T       0.118100
     23 C13         -2.0930    -0.0430     5.8130 ca         1 S9T      -0.177000
     24 O22         -3.9740    -1.0280     6.8850 os         1 S9T      -0.292900
     25 C24         -4.1090    -1.8410     5.7180 c3         1 S9T       0.241700
     26 H1          -0.3610     0.0010    -1.0210 h1         1 S9T      -0.004633
     27 H2          -0.3610     0.8840     0.5110 h1         1 S9T      -0.004633
     28 H3          -0.3610    -0.8850     0.5100 h1         1 S9T      -0.004633
     29 H4           5.9060    -0.8860     0.8560 h1         1 S9T      -0.003633
     30 H5           5.9070     0.8840     0.8530 h1         1 S9T      -0.003633
     31 H6           6.0740    -0.0030    -0.6680 h1         1 S9T      -0.003633
     32 H7           5.1360     0.0020     2.5870 ha         1 S9T       0.124000
     33 H8           0.2150     0.0120     2.3160 ha         1 S9T       0.130000
     34 H9           0.6800    -1.0090     5.0100 h1         1 S9T       0.012700
     35 H10          0.2600     1.9690     4.5680 hc         1 S9T       0.030200
     36 H11         -0.6500     0.6940     3.7470 hc         1 S9T       0.030200
     37 H12          1.2820     0.2920     6.8450 hn         1 S9T       0.264800
     38 H14          3.5290    -0.1950     7.0870 h1         1 S9T       0.009700
     39 H15          2.8070    -1.4420     6.0080 h1         1 S9T       0.009700
     40 H16          4.3860     1.0180     5.2080 hc         1 S9T       0.022700
     41 H17          4.8470    -0.6760     4.9750 hc         1 S9T       0.022700
     42 H18         -0.0380     2.3900     6.9380 ha         1 S9T       0.118000
     43 H19         -1.5580     2.2400     8.8720 ha         1 S9T       0.122000
     44 H20         -3.3990     2.5070     9.8340 h1         1 S9T      -0.003633
     45 H21         -2.3450     1.2870    10.5630 h1         1 S9T      -0.003633
     46 H22         -4.0720     1.3090    10.9480 h1         1 S9T      -0.003633
     47 H23         -2.2390    -0.6850     4.9530 ha         1 S9T       0.124000
     48 H24         -4.2620    -1.2090     4.8520 h1         1 S9T      -0.003967
     49 H25         -4.9590    -2.5030     5.8360 h1         1 S9T      -0.003967
     50 H26         -3.2100    -2.4290     5.5810 h1         1 S9T      -0.003967
@<TRIPOS>BOND
     1     1     2 1   
     2     1    26 1   
     3     1    27 1   
     4     1    28 1   
     5     2     3 1   
     6     3     4 ar  
     7     3     9 ar  
     8     4     5 1   
     9     4     7 ar  
    10     5     6 1   
    11     6    29 1   
    12     6    30 1   
    13     6    31 1   
    14     7     8 ar  
    15     7    32 1   
    16     8    10 ar  
    17     8    16 1   
    18     9    10 ar  
    19     9    33 1   
    20    10    11 1   
    21    11    12 1   
    22    11    14 1   
    23    11    34 1   
    24    12    13 1   
    25    12    35 1   
    26    12    36 1   
    27    13    17 ar  
    28    13    23 ar  
    29    14    15 1   
    30    14    37 1   
    31    15    16 1   
    32    15    38 1   
    33    15    39 1   
    34    16    40 1   
    35    16    41 1   
    36    17    18 ar  
    37    17    42 1   
    38    18    19 ar  
    39    18    43 1   
    40    19    20 1   
    41    19    22 ar  
    42    20    21 1   
    43    21    44 1   
    44    21    45 1   
    45    21    46 1   
    46    22    23 ar  
    47    22    24 1   
    48    23    47 1   
    49    24    25 1   
    50    25    48 1   
    51    25    49 1   
    52    25    50 1   
@<TRIPOS>SUBSTRUCTURE
     1 S9T         1 TEMP              0 ****  ****    0 ROOT
