@<TRIPOS>MOLECULE
molecule
   50    52     1     0     0
SMALL
bcc


@<TRIPOS>ATOM
      1 C21          0.0000     0.0000     0.0000 c3         1 S9T       0.127700
      2 O19          1.4280     0.0000     0.0000 os         1 S9T      -0.313900
      3 C6           2.0460     0.0000     1.2120 ca         1 S9T       0.114100
      4 C5           3.4360    -0.0000     1.2880 ca         1 S9T       0.120100
      5 O18          4.1830    -0.0020     0.1510 os         1 S9T      -0.313900
      6 C20          5.6030    -0.0020     0.3080 c3         1 S9T       0.127700
      7 C4           4.0540     0.0020     2.5250 ca         1 S9T      -0.193000
      8 C3           3.2970     0.0050     3.6880 ca         1 S9T      -0.059300
      9 C7           1.2960     0.0070     2.3740 ca         1 S9T      -0.191000
     10 C8           1.9210     0.0010     3.6130 ca         1 S9T      -0.072300
     11 C9           1.0580    -0.0070     4.8480 c3         1 S9T       0.222800
     12 C11         -0.1150     0.9560     4.6510 c3         1 S9T      -0.024100
     13 C12         -1.0470     0.8610     5.8320 ca         1 S9T      -0.093300
     14 N10          1.8350     0.4100     6.0190 n7         1 S9T      -0.814200
     15 C1           3.0610    -0.3960     6.1310 c3         1 S9T       0.155800
     16 C2           4.0170     0.0190     5.0120 c3         1 S9T      -0.028100
     17 C17         -0.8570     1.6810     6.9290 ca         1 S9T      -0.123000
     18 C16         -1.7090     1.5960     8.0140 ca         1 S9T      -0.191000
     19 C15         -2.7570     0.6890     8.0030 ca         1 S9T       0.114100
     20 O23         -3.5930     0.6020     9.0720 os         1 S9T      -0.314900
     21 C25         -3.3370     1.4790    10.1710 c3         1 S9T       0.127700
     22 C14         -2.9470    -0.1360     6.9000 ca         1 S9T       0.115100
     23 C13         -2.0930    -0.0430     5.8130 ca         1 S9T      -0.189000
     24 O22         -3.9740    -1.0280     6.8850 os         1 S9T      -0.313900
     25 C24         -4.1090    -1.8410     5.7180 c3         1 S9T       0.127700
     26 H1          -0.3610     0.0010    -1.0210 h1         1 S9T       0.039367
     27 H2          -0.3610     0.8840     0.5110 h1         1 S9T       0.039367
     28 H3          -0.3610    -0.8850     0.5100 h1         1 S9T       0.039367
     29 H4           5.9060    -0.8860     0.8560 h1         1 S9T       0.039700
     30 H5           5.9070     0.8840     0.8530 h1         1 S9T       0.039700
     31 H6           6.0740    -0.0030    -0.6680 h1         1 S9T       0.039700
     32 H7           5.1360     0.0020     2.5870 ha         1 S9T       0.140000
     33 H8           0.2150     0.0120     2.3160 ha         1 S9T       0.141000
     34 H9           0.6800    -1.0090     5.0100 h1         1 S9T       0.032700
     35 H10          0.2600     1.9690     4.5680 hc         1 S9T       0.059700
     36 H11         -0.6500     0.6940     3.7470 hc         1 S9T       0.059700
     37 H12          1.2820     0.2920     6.8450 hn         1 S9T       0.362800
     38 H14          3.5290    -0.1950     7.0870 h1         1 S9T       0.037200
     39 H15          2.8070    -1.4420     6.0080 h1         1 S9T       0.037200
     40 H16          4.3860     1.0180     5.2080 hc         1 S9T       0.054700
     41 H17          4.8470    -0.6760     4.9750 hc         1 S9T       0.054700
     42 H18         -0.0380     2.3900     6.9380 ha         1 S9T       0.145000
     43 H19         -1.5580     2.2400     8.8720 ha         1 S9T       0.141000
     44 H20         -3.3990     2.5070     9.8340 h1         1 S9T       0.040033
     45 H21         -2.3450     1.2870    10.5630 h1         1 S9T       0.040033
     46 H22         -4.0720     1.3090    10.9480 h1         1 S9T       0.040033
     47 H23         -2.2390    -0.6850     4.9530 ha         1 S9T       0.139000
     48 H24         -4.2620    -1.2090     4.8520 h1         1 S9T       0.039367
     49 H25         -4.9590    -2.5030     5.8360 h1         1 S9T       0.039367
     50 H26         -3.2100    -2.4290     5.5810 h1         1 S9T       0.039367
@<TRIPOS>BOND
     1    21    20 1
     2    20    19 1
     3    24    25 1
     4    24    22 1
     5    19    22 ar
     6    19    18 ar
     7    22    23 ar
     8    18    17 ar
     9    23    13 ar
    10    17    13 ar
    11    13    12 1
    12    14    15 1
    13    14    11 1
    14    12    11 1
    15    15    16 1
    16    11    10 1
    17    16     8 1
    18    10     8 ar
    19    10     9 ar
    20     8     7 ar
    21     9     3 ar
    22     7     4 ar
    23     3     4 ar
    24     3     2 1
    25     1     2 1
    26     4     5 1
    27     5     6 1
    28     1    26 1
    29     1    27 1
    30     1    28 1
    31     6    29 1
    32     6    30 1
    33     6    31 1
    34     7    32 1
    35     9    33 1
    36    11    34 1
    37    12    35 1
    38    12    36 1
    39    14    37 1
    40    15    38 1
    41    15    39 1
    42    16    40 1
    43    16    41 1
    44    17    42 1
    45    18    43 1
    46    21    44 1
    47    21    45 1
    48    21    46 1
    49    23    47 1
    50    25    48 1
    51    25    49 1
    52    25    50 1
@<TRIPOS>SUBSTRUCTURE
     1 S9T         1 TEMP              0 ****  ****    0 ROOT
