@<TRIPOS>MOLECULE
molecule
   41    43     1     0     0
SMALL
bcc


@<TRIPOS>ATOM
      1 C1           0.0000     0.0000     0.0000 c3         1 SA1       0.130400
      2 O2           1.4300     0.0000     0.0000 os         1 SA1      -0.411600
      3 C3           1.9050     0.0000     1.3530 c3         1 SA1       0.151800
      4 C4           2.2030     1.4030     1.8880 c3         1 SA1      -0.093100
      5 C5           0.8200    -0.7570     2.1710 c3         1 SA1      -0.167700
      6 C6           1.2140    -2.2120     2.0720 c          1 SA1       0.725500
      7 O7           0.4830    -3.1470     2.3210 o          1 SA1      -0.629500
      8 N8           2.4910    -2.3190     1.6680 ns         1 SA1      -0.562900
      9 C9           3.1120    -0.9600     1.4510 c3         1 SA1       0.002400
     10 C10          4.0010    -0.5890     2.6390 c3         1 SA1       0.155100
     11 C11          5.0070    -1.7140     2.8950 c3         1 SA1      -0.060500
     12 C12          5.7820    -1.4140     4.1450 c2         1 SA1      -0.178200
     13 C13          7.0560    -1.5850     4.2690 c2         1 SA1      -0.156200
     14 C14          7.9460    -2.0920     3.1730 c3         1 SA1      -0.049200
     15 C15          7.1090    -2.7660     2.0830 c3         1 SA1      -0.073400
     16 C16          5.9600    -1.8230     1.7020 c3         1 SA1      -0.100400
     17 O17          3.1910    -0.4020     3.8010 oh         1 SA1      -0.599800
     18 C18          3.9140    -0.9520     0.1750 c          1 SA1       0.594900
     19 O19          3.8890    -1.9090    -0.5610 o          1 SA1      -0.503100
     20 C20         -0.4730    -0.5090     1.3720 c3         1 SA1      -0.105400
     21 H11A        -0.3650    -0.6580    -0.7790 h1         1 SA1       0.050700
     22 H12A        -0.3650     1.0070    -0.1620 h1         1 SA1       0.050700
     23 H41          2.1120     1.4050     2.9670 hc         1 SA1       0.049367
     24 H42          3.2100     1.6890     1.6090 hc         1 SA1       0.049367
     25 H43          1.4970     2.1070     1.4650 hc         1 SA1       0.049367
     26 H5           0.7530    -0.4080     3.1950 hc         1 SA1       0.109700
     27 HN8          2.9690    -3.1870     1.5280 hn         1 SA1       0.348500
     28 H10          4.5340     0.3280     2.4190 h1         1 SA1       0.043700
     29 H11          4.4790    -2.6520     3.0180 hc         1 SA1       0.083700
     30 H12          5.2360    -1.0300     4.9980 ha         1 SA1       0.119000
     31 H13          7.5100    -1.3470     5.2240 ha         1 SA1       0.120000
     32 H141         8.6440    -2.8120     3.5830 hc         1 SA1       0.051700
     33 H142         8.4920    -1.2610     2.7420 hc         1 SA1       0.051700
     34 H151         7.7270    -2.9550     1.2140 hc         1 SA1       0.049700
     35 H152         6.7040    -3.6980     2.4600 hc         1 SA1       0.049700
     36 H161         6.3580    -0.8440     1.4640 hc         1 SA1       0.051200
     37 H162         5.4290    -2.2250     0.8480 hc         1 SA1       0.051200
     38 HO17         3.6240     0.1890     4.3940 ho         1 SA1       0.408000
     39 H18          4.4810    -0.0710    -0.1010 h4         1 SA1       0.009200
     40 H201        -1.0260    -1.4330     1.2590 hc         1 SA1       0.068200
     41 H202        -1.0790     0.2430     1.8630 hc         1 SA1       0.068200
@<TRIPOS>BOND
     1     1     2 1
     2     1    20 1
     3     1    21 1
     4     1    22 1
     5     2     3 1
     6     3     4 1
     7     3     5 1
     8     3     9 1
     9     4    23 1
    10     4    24 1
    11     4    25 1
    12     5     6 1
    13     5    20 1
    14     5    26 1
    15     6     7 2
    16     6     8 1
    17     8     9 1
    18     8    27 1
    19     9    10 1
    20     9    18 1
    21    10    11 1
    22    10    17 1
    23    10    28 1
    24    11    12 1
    25    11    16 1
    26    11    29 1
    27    12    13 2
    28    12    30 1
    29    13    14 1
    30    13    31 1
    31    14    15 1
    32    14    32 1
    33    14    33 1
    34    15    16 1
    35    15    34 1
    36    15    35 1
    37    16    36 1
    38    16    37 1
    39    17    38 1
    40    18    19 2
    41    18    39 1
    42    20    40 1
    43    20    41 1
@<TRIPOS>SUBSTRUCTURE
     1 SA1         1 TEMP              0 ****  ****    0 ROOT
