@<TRIPOS>MOLECULE
SA2
   41    42     1     0     0
SMALL
bcc


@<TRIPOS>ATOM
      1 O23          0.0000     0.0000     0.0000 o          1 SA2      -0.645000
      2 C20          1.3420     0.0000     0.0000 c2         1 SA2       0.401000
      3 O22          1.9460     0.0000     1.0470 o          1 SA2      -0.645000
      4 C19          2.0950    -0.0020    -1.3050 c3         1 SA2      -0.163000
      5 C18          3.6000    -0.0030    -1.0250 c3         1 SA2      -0.089000
      6 C17          4.3650    -0.0030    -2.3500 c3         1 SA2      -0.103000
      7 C16          5.8460    -0.0040    -2.0740 c2         1 SA2       0.362000
      8 O24          6.2500    -0.0030    -0.9360 o          1 SA2      -0.391000
      9 O15          6.7190    -0.0050    -3.0940 os         1 SA2      -0.262000
     10 C14          8.1470    -0.0060    -2.8290 c3         1 SA2       0.038000
     11 C2           8.9120    -0.0080    -4.1540 c3         1 SA2      -0.371000
     12 S1           8.4730    -1.4890    -5.1040 s4         1 SA2       1.233000
     13 O13          8.9210    -2.5690    -4.1290 oh         1 SA2      -0.555000
     14 O12          7.0660    -1.6820    -5.0570 o          1 SA2      -0.743000
     15 C21          8.5430     1.2420    -4.9580 c3         1 SA2      -0.109000
     16 C3          10.4160    -0.0070    -3.8740 c3         1 SA2      -0.161000
     17 C9          10.7610     1.1570    -2.9820 c2         1 SA2       0.393000
     18 O10         10.2050     1.2580    -1.7640 o          1 SA2      -0.577500
     19 O11         11.5390     2.0000    -3.3630 o          1 SA2      -0.577500
     20 N4          11.1470     0.1120    -5.1380 ny         1 SA2       0.416000
     21 C5          12.4230    -0.3610    -5.2340 c2         1 SA2      -0.234000
     22 C6          13.1000    -0.2510    -6.4030 c2         1 SA2      -0.730000
     23 C7          14.4110    -0.7370    -6.5020 c3         1 SA2       0.401000
     24 O8          15.0170    -0.6380    -7.5500 o          1 SA2      -0.450000
     25 H191         1.8340     0.8820    -1.8750 hc         1 SA2       0.039500
     26 H192         1.8330    -0.8870    -1.8720 hc         1 SA2       0.039500
     27 H181         3.8620     0.8820    -0.4570 hc         1 SA2       0.074000
     28 H182         3.8610    -0.8870    -0.4570 hc         1 SA2       0.074000
     29 H171         4.1040     0.8810    -2.9180 hc         1 SA2       0.063500
     30 H172         4.1030    -0.8880    -2.9180 hc         1 SA2       0.063500
     31 H141         8.4090     0.8790    -2.2620 h1         1 SA2       0.110000
     32 H142         8.4080    -0.8900    -2.2600 h1         1 SA2       0.110000
     33 HO13         9.1260    -3.3570    -4.6060 ho         1 SA2       0.242000
     34 H211         8.9280     1.1500    -5.9660 hc         1 SA2       0.061000
     35 H212         7.4650     1.3440    -4.9910 hc         1 SA2       0.061000
     36 H213         8.9740     2.1160    -4.4850 hc         1 SA2       0.061000
     37 H3          10.6920    -0.9330    -3.3830 hx         1 SA2       0.131000
     38 HN4         10.6940     0.4960    -5.9430 hn         1 SA2       0.040000
     39 H52         12.1650     0.6850    -5.1160 DU         1 SA2       0.230000
     40 H62         13.9730     0.2620    -6.0180 DU         1 SA2       0.161000
     41 H7          14.8710    -1.2310    -5.6550 h1         1 SA2       0.001000
@<TRIPOS>BOND
     1     1     2 1   
     2     2     3 1   
     3     2     4 1   
     4     4     5 1   
     5     4    25 1   
     6     4    26 1   
     7     5     6 1   
     8     5    27 1   
     9     5    28 1   
    10     6     7 1   
    11     6    29 1   
    12     6    30 1   
    13     7     8 1   
    14     7     9 1   
    15     9    10 1   
    16    10    11 1   
    17    10    31 1   
    18    10    32 1   
    19    11    12 1   
    20    11    15 1   
    21    11    16 1   
    22    12    13 1   
    23    12    14 1   
    24    13    33 1   
    25    15    34 1   
    26    15    35 1   
    27    15    36 1   
    28    16    17 1   
    29    16    20 1   
    30    16    37 1   
    31    17    18 1   
    32    17    19 1   
    33    20    21 1   
    34    20    38 1   
    35    20    39 1   
    36    21    22 1   
    37    21    39 1   
    38    22    23 1   
    39    22    40 1   
    40    23    24 1   
    41    23    40 1   
    42    23    41 1   
@<TRIPOS>SUBSTRUCTURE
     1 SA2         1 TEMP              0 ****  ****    0 ROOT
