@<TRIPOS>MOLECULE
SA6
   43    44     1     0     0
SMALL
bcc


@<TRIPOS>ATOM
      1 C1           0.0000     0.0000     0.0000 c3         1 SA6      -0.002100
      2 C2           1.5300     0.0000     0.0000 c3         1 SA6      -0.001400
      3 C3           2.0400     0.0000     1.4430 c3         1 SA6      -0.142700
      4 C4           3.5810     0.1250     1.4730 c3         1 SA6       0.183800
      5 C5           4.0080     1.5720     1.7310 c3         1 SA6      -0.051100
      6 O6           4.1570    -0.3650     0.2600 oh         1 SA6      -0.581800
      7 C7           1.7640    -1.3330     2.1030 c          1 SA6       0.644500
      8 O8           0.7150    -1.9380     2.0340 o          1 SA6      -0.662500
      9 N9           2.8500    -1.7490     2.7770 ns         1 SA6      -0.191900
     10 C10          3.9480    -0.7810     2.6680 c3         1 SA6      -0.153600
     11 C11          5.2470    -1.4960     2.4000 c          1 SA6       0.660900
     12 O12          6.1890    -1.3340     3.1380 o          1 SA6      -0.546100
     13 C13          4.0530     0.0470     3.9490 c3         1 SA6       0.189100
     14 O14          2.8300     0.7580     4.1580 oh         1 SA6      -0.581800
     15 C15          4.3120    -0.8810     5.1370 c3         1 SA6      -0.043500
     16 C16          4.7550    -0.0500     6.3430 c3         1 SA6      -0.019400
     17 C17          4.7580    -0.9550     7.5820 c3         1 SA6      -0.022400
     18 C18          3.3140    -1.3410     7.9020 c3         1 SA6       0.021800
     19 C19          2.6250    -1.8400     6.6660 c2         1 SA6      -0.136200
     20 C20          3.0560    -1.6360     5.4630 c2         1 SA6      -0.189200
     21 H1          -0.3610     0.5410    -0.8670 hc         1 SA6       0.008700
     22 H1A         -0.3610    -1.0210    -0.0350 hc         1 SA6       0.008700
     23 H1B         -0.3610     0.4800     0.9010 hc         1 SA6       0.008700
     24 H2           1.8910     0.8850    -0.5110 hc         1 SA6       0.018700
     25 H2A          1.8910    -0.8840    -0.5110 hc         1 SA6       0.018700
     26 H3           1.5860     0.8030     2.0110 hc         1 SA6       0.076700
     27 H5           5.0240     1.5880     2.1070 hc         1 SA6       0.024700
     28 H5A          3.3460     2.0190     2.4630 hc         1 SA6       0.024700
     29 H5B          3.9560     2.1350     0.8070 hc         1 SA6       0.024700
     30 HO6          4.8160     0.2380    -0.0410 ho         1 SA6       0.401000
     31 HN9          2.9030    -2.6090     3.2860 hn         1 SA6       0.213500
     32 H11          5.3250    -2.1830     1.5660 h4         1 SA6      -0.010800
     33 H13          4.8700     0.7530     3.8570 h1         1 SA6       0.027700
     34 HO14         3.0130     1.5810     4.5790 ho         1 SA6       0.395000
     35 H15          5.0960    -1.5860     4.8830 hc         1 SA6       0.063700
     36 H16          4.0630     0.7700     6.4930 hc         1 SA6       0.014700
     37 H16A         5.7530     0.3360     6.1720 hc         1 SA6       0.014700
     38 H17          5.1870    -0.4210     8.4210 hc         1 SA6       0.015700
     39 H17A         5.3360    -1.8480     7.3780 hc         1 SA6       0.015700
     40 H18          2.7870    -0.4720     8.2780 hc         1 SA6       0.017700
     41 H18A         3.3100    -2.1220     8.6530 hc         1 SA6       0.017700
     42 H19          1.7090    -2.4060     6.7880 ha         1 SA6       0.097000
     43 H20          2.4760    -2.0350     4.6400 ha         1 SA6       0.123000
@<TRIPOS>BOND
     1     1     2 1   
     2     1    21 1   
     3     1    22 1   
     4     1    23 1   
     5     2     3 1   
     6     2    24 1   
     7     2    25 1   
     8     3     4 1   
     9     3     7 1   
    10     3    26 1   
    11     4     5 1   
    12     4     6 1   
    13     4    10 1   
    14     5    27 1   
    15     5    28 1   
    16     5    29 1   
    17     6    30 1   
    18     7     8 2   
    19     7     9 1   
    20     9    10 1   
    21     9    31 1   
    22    10    11 1   
    23    10    13 1   
    24    11    12 2   
    25    11    32 1   
    26    13    14 1   
    27    13    15 1   
    28    13    33 1   
    29    14    34 1   
    30    15    16 1   
    31    15    20 1   
    32    15    35 1   
    33    16    17 1   
    34    16    36 1   
    35    16    37 1   
    36    17    18 1   
    37    17    38 1   
    38    17    39 1   
    39    18    19 1   
    40    18    40 1   
    41    18    41 1   
    42    19    20 2   
    43    19    42 1   
    44    20    43 1   
@<TRIPOS>SUBSTRUCTURE
     1 SA6         1 TEMP              0 ****  ****    0 ROOT
