@<TRIPOS>MOLECULE
SA8
   51    53     1     0     0
SMALL
bcc


@<TRIPOS>ATOM
      1 N           2.3240   -0.1430    0.5560 n4        1 SA8     -0.827600
      2 CA          2.0740    0.1500   -0.8870 c3        1 SA8     -0.078500
      3 C           3.4080    0.7590   -1.5270 c         1 SA8      0.923600
      4 OXT         4.2280    1.2410   -0.7200 o         1 SA8     -0.755800
      5 O           3.4400    0.7250   -2.7800 o         1 SA8     -0.755800
      6 CB          0.9320    1.1400   -1.1010 c3        1 SA8     -0.102400
      7 CG          0.6600    1.3440   -2.5920 c3        1 SA8      0.127800
      8 ND          1.3990    2.4890   -3.2180 n4        1 SA8     -0.680400
      9 CE          0.7760    3.7890   -2.8840 c3        1 SA8      0.079100
     10 C5'         1.5030    2.2700   -4.7000 c3        1 SA8      0.105800
     11 C4'         2.1460    3.4460   -5.4400 c3        1 SA8      0.081100
     12 O4'         3.4090    3.7410   -4.8450 os        1 SA8     -0.433600
     13 C3'         2.3580    3.1100   -6.9360 c3        1 SA8      0.137100
     14 O3'         1.3100    3.6200   -7.7130 oh        1 SA8     -0.578800
     15 C2'         3.7560    3.6790   -7.2510 c3        1 SA8      0.086100
     16 O2'         3.5900    4.9440   -7.8540 oh        1 SA8     -0.604800
     17 C1'         4.4360    3.8790   -5.8530 c3        1 SA8      0.250800
     18 N9          5.5220    2.9680   -5.6170 na        1 SA8     -0.315000
     19 C8          5.7680    2.0590   -4.5500 cc        1 SA8      0.427700
     20 N7          6.9800    1.4970   -4.6090 nd        1 SA8     -0.531100
     21 C5          7.5980    2.0480   -5.7440 ca        1 SA8     -0.228200
     22 C6          8.8910    1.8650   -6.3430 ca        1 SA8      0.771200
     23 N6          9.7870    0.9890   -5.8010 nh        1 SA8     -0.949500
     24 N1          9.1980    2.5830   -7.4810 nb        1 SA8     -0.785000
     25 C2          8.2540    3.4200   -7.9750 ca        1 SA8      0.699900
     26 N3          7.0020    3.6900   -7.5230 nb        1 SA8     -0.775000
     27 C4          6.6980    2.9870   -6.3920 ca        1 SA8      0.450800
     28 HN1         3.1000    0.4830    0.8630 hn        1 SA8      0.460800
     29 HN2         1.4980    0.0160    1.1290 hn        1 SA8      0.460800
     30 HA          1.8490   -0.8230   -1.4090 hx        1 SA8      0.111700
     31 HB1        -0.0180    0.7420   -0.6490 hc        1 SA8      0.075200
     32 HB2         1.1670    2.1110   -0.5880 hc        1 SA8      0.075200
     33 HG1         0.9620    0.4070   -3.1500 hx        1 SA8      0.109700
     34 HG2        -0.4410    1.5280   -2.7500 hx        1 SA8      0.109700
     35 HE1        -0.1860    3.9090   -3.4480 hx        1 SA8      0.099367
     36 HE2         0.5740    3.8380   -1.7810 hx        1 SA8      0.099367
     37 HE3         1.4860    4.6160   -3.1660 hx        1 SA8      0.099367
     38 H5'1        0.4730    2.1020   -5.1200 hx        1 SA8      0.117700
     39 H5'2        2.1410    1.3450   -4.8380 hx        1 SA8      0.117700
     40 H4'         1.5120    4.3720   -5.3510 h1        1 SA8      0.080700
     41 H3'         2.3430    1.9980   -7.1080 h1        1 SA8      0.096700
     42 H2          1.5100    4.5370   -7.9550 ho        1 SA8      0.443000
     43 H2'         4.3310    2.9830   -7.9170 h1        1 SA8      0.106700
     44 H1          4.3990    5.1310   -8.3520 ho        1 SA8      0.452000
     45 H1'         4.8120    4.9440   -5.7500 h2        1 SA8      0.109700
     46 H8          5.0040    1.8510   -3.7830 h5        1 SA8      0.106800
     47 HN61       10.6910    0.8790   -6.1920 hn        1 SA8      0.455300
     48 HN62        9.5540    0.5210   -4.9600 hn        1 SA8      0.455300
     49 H3          8.5570    3.9720   -8.8920 h5        1 SA8      0.058100
     50 HN3         2.6370   -1.1110    0.6590 hn        1 SA8      0.460800
     51 HD1         2.3840    2.4820   -2.8650 hn        1 SA8      0.497800
@<TRIPOS>BOND
     1    1    2 1
     2    1   28 1
     3    1   29 1
     4    1   50 1
     5    2    3 1
     6    2    6 1
     7    2   30 1
     8    3    4 1
     9    3    5 1
    10    6    7 1
    11    6   31 1
    12    6   32 1
    13    7    8 1
    14    7   33 1
    15    7   34 1
    16    8    9 1
    17    8   10 1
    18    8   51 1
    19    9   35 1
    20    9   36 1
    21    9   37 1
    22   10   11 1
    23   10   38 1
    24   10   39 1
    25   11   12 1
    26   11   13 1
    27   11   40 1
    28   12   17 1
    29   13   14 1
    30   13   15 1
    31   13   41 1
    32   14   42 1
    33   15   16 1
    34   15   17 1
    35   15   43 1
    36   16   44 1
    37   17   18 1
    38   17   45 1
    39   18   19 1
    40   18   27 1
    41   19   20 2
    42   19   46 1
    43   20   21 1
    44   21   22 ar
    45   21   27 ar
    46   22   23 1
    47   22   24 ar
    48   23   47 1
    49   23   48 1
    50   24   25 ar
    51   25   26 ar
    52   25   49 1
    53   26   27 ar
@<TRIPOS>SUBSTRUCTURE
     1 SA8         1 TEMP              0 ****  ****    0 ROOT
