@<TRIPOS>MOLECULE
molecule
   17    17     1     0     0
SMALL
bcc


@<TRIPOS>ATOM
      1 OAA          0.0000     0.0000     0.0000 oh         1 SA9      -0.616800
      2 CAC          2.8550    -0.0020     4.0300 ca         1 SA9      -0.105000
      3 CAD          1.4960     0.0000     3.7740 ca         1 SA9      -0.151000
      4 CAE          3.7560    -0.0020     2.9830 ca         1 SA9      -0.189000
      5 CAF          1.0360    -0.0000     2.4710 ca         1 SA9      -0.081000
      6 CAG          1.4290     0.0000     0.0000 c3         1 SA9       0.195700
      7 CAH          3.2970    -0.0010     1.6740 ca         1 SA9       0.116100
      8 CAI          1.9320    -0.0010     1.4200 ca         1 SA9      -0.106300
      9 HOAA        -0.3140     0.0000    -0.8890 ho         1 SA9       0.405000
     10 HOAB         4.8070     0.6920     0.7640 ho         1 SA9       0.421000
     11 HAC          3.2130    -0.0020     5.0520 ha         1 SA9       0.131000
     12 HAD          0.7910     0.0000     4.5970 ha         1 SA9       0.132000
     13 HAE          4.8210    -0.0030     3.1830 ha         1 SA9       0.134000
     14 HAF         -0.0290     0.0010     2.2740 ha         1 SA9       0.157000
     15 HAG          1.7900     0.8850    -0.5100 h1         1 SA9       0.036700
     16 HAGA         1.7900    -0.8840    -0.5110 h1         1 SA9       0.036700
     17 OAB          4.1810    -0.0020     0.6420 oh         1 SA9      -0.516100
@<TRIPOS>BOND
     1     1     6 1
     2    17     7 1
     3     2     3 ar
     4     2     4 ar
     5     3     5 ar
     6     4     7 ar
     7     5     8 ar
     8     6     8 1
     9     7     8 ar
    10     1     9 1
    11    17    10 1
    12     2    11 1
    13     3    12 1
    14     4    13 1
    15     5    14 1
    16     6    15 1
    17     6    16 1
@<TRIPOS>SUBSTRUCTURE
     1 SA9         1 TEMP              0 ****  ****    0 ROOT
