@<TRIPOS>MOLECULE
SA9
   17    16     1     0     0
SMALL
bcc


@<TRIPOS>ATOM
      1 OAA        -0.1210    0.3740    0.0460 oh        1 SA9     -0.294000
      2 CAC         3.7190    0.0730    4.1330 c3        1 SA9     -0.261000
      3 CAD        -0.4350    0.4850    2.3090 c1        1 SA9      0.211000
      4 CAE         3.6600   -0.6670    2.9040 c1        1 SA9      0.011000
      5 CAF         0.8560    0.2400    2.4970 c2        1 SA9     -0.441000
      6 CAG         1.2980    0.3350    0.0510 c3        1 SA9      0.007000
      7 CAH         3.1410   -0.1850    1.6630 c2        1 SA9      0.011000
      8 CAI         1.8310    0.1300    1.4340 c2        1 SA9     -0.170000
      9 HOAA        1.6660   -0.4610   -0.6520 h1        1 SA9      0.099000
     10 HOAB        3.6610   -0.4580   -0.1680 ho        1 SA9      0.213000
     11 HAC         3.2080    1.0700    4.1490 hc        1 SA9      0.120333
     12 HAD         4.8180    0.2320    4.3380 hc        1 SA9      0.120333
     13 HAE         3.3210   -0.5630    4.9690 hc        1 SA9      0.120333
     14 HAF         1.2250    0.1230    3.5350 ha        1 SA9      0.179000
     15 HAG        -0.4430   -0.5370    0.0870 ho        1 SA9      0.213000
     16 HAGA        1.6060    1.3470   -0.3350 h1        1 SA9      0.099000
     17 OAB         4.0910   -0.1930    0.6590 oh        1 SA9     -0.238000
@<TRIPOS>BOND
     1    1    6 1   
     2    1   15 1   
     3    2    4 1   
     4    2   11 1   
     5    2   12 1   
     6    2   13 1   
     7    3    5 1   
     8    4    7 1   
     9    5    8 1   
    10    5   14 1   
    11    6    8 1   
    12    6    9 1   
    13    6   16 1   
    14    7    8 1   
    15    7   17 1   
    16   10   17 1   
@<TRIPOS>SUBSTRUCTURE
     1 SA9         1 TEMP              0 ****  ****    0 ROOT
