@<TRIPOS>MOLECULE
molecule
   21    21     1     0     0
SMALL
bcc


@<TRIPOS>ATOM
      1 C1           0.0000     0.0000     0.0000 ca         1 SAA      -0.014300
      2 C2           1.3810     0.0000     0.0000 ca         1 SAA      -0.104500
      3 C3           2.0720     0.0000     1.1980 ca         1 SAA      -0.148500
      4 C4           1.3810    -0.0010     2.3940 ca         1 SAA      -0.157000
      5 C5          -0.0010     0.0000     2.3940 ca         1 SAA      -0.148500
      6 C6          -0.6910     0.0050     1.1960 ca         1 SAA      -0.104500
      7 C7          -0.7530    -0.0000    -1.3050 c3         1 SAA       0.084100
      8 O8           0.0200    -0.6730    -2.3010 oh         1 SAA      -0.608800
      9 C9          -2.0880    -0.7220    -1.1240 c3         1 SAA      -0.106100
     10 C10         -1.0040     1.4200    -1.7400 c          1 SAA       0.883600
     11 O1          -0.5680     1.8160    -2.7940 o          1 SAA      -0.830800
     12 O2          -1.7150     2.2450    -0.9560 o          1 SAA      -0.830800
     13 H2           1.9230    -0.0010    -0.9380 ha         1 SAA       0.142000
     14 H3           3.1550    -0.0010     1.1980 ha         1 SAA       0.107000
     15 H4           1.9230    -0.0030     3.3330 ha         1 SAA       0.102000
     16 H5          -0.5430     0.0020     3.3320 ha         1 SAA       0.107000
     17 H6          -1.7750     0.0050     1.1950 ha         1 SAA       0.142000
     18 HO8         -0.5560    -1.0430    -2.9490 ho         1 SAA       0.391000
     19 H91         -1.9150    -1.6970    -0.6840 hc         1 SAA       0.031367
     20 H92         -2.5680    -0.8420    -2.0880 hc         1 SAA       0.031367
     21 H93         -2.7280    -0.1400    -0.4720 hc         1 SAA       0.031367
@<TRIPOS>BOND
     1     1     2 ar
     2     1     6 ar
     3     1     7 1
     4     2     3 ar
     5     2    13 1
     6     3     4 ar
     7     3    14 1
     8     4     5 ar
     9     4    15 1
    10     5     6 ar
    11     5    16 1
    12     6    17 1
    13     7     8 1
    14     7     9 1
    15     7    10 1
    16     8    18 1
    17     9    19 1
    18     9    20 1
    19     9    21 1
    20    10    11 1
    21    10    12 1
@<TRIPOS>SUBSTRUCTURE
     1 SAA         1 TEMP              0 ****  ****    0 ROOT
