@<TRIPOS>MOLECULE
SAA
   21    21     1     0     0
SMALL
bcc


@<TRIPOS>ATOM
      1 C1         -0.0200    0.0200   -0.0290 ca        1 SAA     -0.045300
      2 C2          1.2920   -0.4680   -0.0060 ca        1 SAA     -0.122000
      3 C3          2.0330   -0.4510    1.1750 ca        1 SAA     -0.152000
      4 C4          1.4710    0.0520    2.3480 ca        1 SAA     -0.161000
      5 C5          0.1670    0.5480    2.3300 ca        1 SAA     -0.152000
      6 C6         -0.5750    0.5350    1.1520 ca        1 SAA     -0.122000
      7 C7         -0.8450   -0.0150   -1.2890 c3        1 SAA      0.054100
      8 O8         -0.0190   -0.3760   -2.3930 oh        1 SAA     -0.640800
      9 C9         -1.9270   -1.0830   -1.1710 c3        1 SAA     -0.068100
     10 C10        -1.5240    1.3780   -1.5500 c         1 SAA      0.908600
     11 O1         -1.0760    2.0360   -2.5300 o         1 SAA     -0.824800
     12 O2         -2.4670    1.7400   -0.7990 o         1 SAA     -0.824800
     13 H2          1.7320   -0.8600   -0.9360 ha        1 SAA      0.159000
     14 H3          3.0620   -0.8360    1.1810 ha        1 SAA      0.107500
     15 H4          2.0540    0.0640    3.2780 ha        1 SAA      0.103000
     16 H5         -0.2750    0.9580    3.2490 ha        1 SAA      0.107500
     17 H6         -1.5980    0.9540    1.1140 ha        1 SAA      0.159000
     18 HO8         0.1120    0.4300   -2.9200 ho        1 SAA      0.429000
     19 H91        -2.4710   -1.1640   -2.1410 hc        1 SAA      0.029033
     20 H92        -2.6450   -0.7810   -0.3710 hc        1 SAA      0.029033
     21 H93        -1.4810   -2.0750   -0.9250 hc        1 SAA      0.029033
@<TRIPOS>BOND
     1    1    2 ar  
     2    1    6 ar  
     3    1    7 1   
     4    2    3 ar  
     5    2   13 1   
     6    3    4 ar  
     7    3   14 1   
     8    4    5 ar  
     9    4   15 1   
    10    5    6 ar  
    11    5   16 1   
    12    6   17 1   
    13    7    8 1   
    14    7    9 1   
    15    7   10 1   
    16    8   18 1   
    17    9   19 1   
    18    9   20 1   
    19    9   21 1   
    20   10   11 1   
    21   10   12 1   
@<TRIPOS>SUBSTRUCTURE
     1 SAA         1 TEMP              0 ****  ****    0 ROOT
