@<TRIPOS>MOLECULE
SAB
   37    37     1     0     0
SMALL
bcc


@<TRIPOS>ATOM
      1 C1           0.0000     0.0000     0.0000 ca         1 SAB      -0.055600
      2 C2           1.3950     0.0000     0.0000 ca         1 SAB      -0.074000
      3 C3           2.0820     0.0000     1.1960 ca         1 SAB       0.013000
      4 C4           1.3920    -0.0000     2.3940 ca         1 SAB      -0.218500
      5 C5           0.0080     0.0010     2.4010 ca         1 SAB       0.013000
      6 C6          -0.6910     0.0060     1.2120 ca         1 SAB      -0.074000
      7 C7          -0.7420    -0.0010    -1.2770 c          1 SAB       0.576700
      8 O7          -0.1380    -0.0020    -2.3320 o          1 SAB      -0.599100
      9 N           -2.0900     0.0000    -1.2740 ns         1 SAB      -0.193900
     10 C1'         -2.8260    -0.0010    -2.5400 c3         1 SAB       0.057000
     11 C2'         -4.3290     0.0000    -2.2580 c3         1 SAB      -0.031400
     12 C3'         -5.0970    -0.0010    -3.5800 c3         1 SAB      -0.028400
     13 C4'         -6.6010     0.0010    -3.2970 c3         1 SAB      -0.052200
     14 N4'         -7.3390    -0.0010    -4.5670 nz         1 SAB       0.090400
     15 S            2.2770    -0.0000     3.9170 sy         1 SAB       0.947200
     16 O1S          1.3790    -0.5260     4.8850 o          1 SAB      -0.489300
     17 O2S          3.5610    -0.5270     3.6170 o          1 SAB      -0.489300
     18 N3S          2.5260     1.5790     4.3460 nz         1 SAB      -0.130500
     19 H2           1.9380    -0.0020    -0.9380 ha         1 SAB       0.138500
     20 H3           3.1660    -0.0000     1.1960 ha         1 SAB       0.132500
     21 H5          -0.5280     0.0030     3.3430 ha         1 SAB       0.132500
     22 H6          -1.7740     0.0070     1.2190 ha         1 SAB       0.138500
     23 HN          -2.5880     0.0020    -0.4060 hn         1 SAB       0.179500
     24 H1'1        -2.5650     0.8820    -3.1100 h1         1 SAB       0.038200
     25 H1'2        -2.5660    -0.8870    -3.1080 h1         1 SAB       0.038200
     26 H2'1        -4.5900    -0.8830    -1.6880 hc         1 SAB       0.029200
     27 H2'2        -4.5890     0.8860    -1.6900 hc         1 SAB       0.029200
     28 H3'1        -4.8380    -0.8860    -4.1480 hc         1 SAB       0.040700
     29 H3'2        -4.8360     0.8830    -4.1500 hc         1 SAB       0.040700
     30 H4'1        -6.8620    -0.8830    -2.7270 hx         1 SAB       0.086200
     31 H4'2        -6.8610     0.8860    -2.7290 hx         1 SAB       0.086200
     32 HN41        -8.3230     0.0000    -4.3810 hn         1 SAB       0.227133
     33 HN42        -7.0990     0.8160    -5.0930 hn         1 SAB       0.227133
     34 HN31         3.0280     1.6150     5.2110 hn         1 SAB       0.315800
     35 HN32         1.6440     2.0390     4.4530 hn         1 SAB       0.315800
     36 H4'3        -7.0800    -0.8050    -5.1030 hn         1 SAB       0.227133
     37 H3S3         3.0620     2.0370     3.6350 hn         1 SAB       0.315800
@<TRIPOS>BOND
     1     1     2 ar  
     2     1     6 ar  
     3     1     7 1   
     4     2     3 ar  
     5     2    19 1   
     6     3     4 ar  
     7     3    20 1   
     8     4     5 ar  
     9     4    15 1   
    10     5     6 ar  
    11     5    21 1   
    12     6    22 1   
    13     7     8 2   
    14     7     9 1   
    15     9    10 1   
    16     9    23 1   
    17    10    11 1   
    18    10    24 1   
    19    10    25 1   
    20    11    12 1   
    21    11    26 1   
    22    11    27 1   
    23    12    13 1   
    24    12    28 1   
    25    12    29 1   
    26    13    14 1   
    27    13    30 1   
    28    13    31 1   
    29    14    32 1   
    30    14    33 1   
    31    14    36 1   
    32    15    16 2   
    33    15    17 2   
    34    15    18 1   
    35    18    34 1   
    36    18    35 1   
    37    18    37 1   
@<TRIPOS>SUBSTRUCTURE
     1 SAB         1 TEMP              0 ****  ****    0 ROOT
