@<TRIPOS>MOLECULE
SAF
   27    27     1     0     0
SMALL
bcc


@<TRIPOS>ATOM
      1 C1           0.0000     0.0000     0.0000 ca         1 SAF      -0.104000
      2 C3          -0.0060     0.0040     2.3940 ca         1 SAF      -0.140000
      3 C4           1.3820     0.0000     2.3960 ca         1 SAF       0.122100
      4 C5           2.0740     0.0000     1.1960 ca         1 SAF      -0.139000
      5 C6           1.3830     0.0000     0.0000 ca         1 SAF      -0.084000
      6 O4           2.0590    -0.0000     3.5740 oh         1 SAF      -0.501100
      7 N2          -2.6870     0.6920    -0.0070 n3         1 SAF      -0.521600
      8 C7          -4.1540     0.6560     0.0500 c3         1 SAF       0.159600
      9 C8          -2.2930     2.1000     0.1290 c3         1 SAF       0.159600
     10 C9          -2.2000    -0.0000     1.1930 c3         1 SAF       0.172800
     11 C10         -2.7090    -1.4430     1.1910 c3         1 SAF      -0.003100
     12 C40         -0.6940    -0.0000     1.1960 ca         1 SAF      -0.074300
     13 H1          -0.5410    -0.0020    -0.9390 ha         1 SAF       0.128000
     14 H3          -0.5500     0.0040     3.3310 ha         1 SAF       0.114000
     15 H5           3.1570    -0.0020     1.1950 ha         1 SAF       0.113000
     16 H6           1.9240     0.0000    -0.9380 ha         1 SAF       0.103000
     17 H4           2.1720     0.8870     3.8720 ho         1 SAF       0.401000
     18 H7C1        -4.4820     0.8610     1.0620 h1         1 SAF       0.006367
     19 H7C2        -4.5040    -0.3250    -0.2500 h1         1 SAF       0.006367
     20 H7C3        -4.5610     1.4040    -0.6200 h1         1 SAF       0.006367
     21 H8C1        -2.8070     2.6920    -0.6180 h1         1 SAF       0.006367
     22 H8C2        -1.2230     2.1910    -0.0110 h1         1 SAF       0.006367
     23 H8C3        -2.5590     2.4550     1.1170 h1         1 SAF       0.006367
     24 H9          -2.5630     0.5100     2.0770 h1         1 SAF       0.018700
     25 H101        -2.0130    -2.0730     1.7320 hc         1 SAF       0.012367
     26 H102        -2.7960    -1.7940     0.1700 hc         1 SAF       0.012367
     27 H103        -3.6800    -1.4840     1.6710 hc         1 SAF       0.012367
@<TRIPOS>BOND
     1     1     5 ar  
     2     1    12 ar  
     3     1    13 1   
     4     2     3 ar  
     5     2    12 ar  
     6     2    14 1   
     7     3     4 ar  
     8     3     6 1   
     9     4     5 ar  
    10     4    15 1   
    11     5    16 1   
    12     6    17 1   
    13     7     8 1   
    14     7     9 1   
    15     7    10 1   
    16     8    18 1   
    17     8    19 1   
    18     8    20 1   
    19     9    21 1   
    20     9    22 1   
    21     9    23 1   
    22    10    11 1   
    23    10    12 1   
    24    10    24 1   
    25    11    25 1   
    26    11    26 1   
    27    11    27 1   
@<TRIPOS>SUBSTRUCTURE
     1 SAF         1 TEMP              0 ****  ****    0 ROOT
