@<TRIPOS>MOLECULE
molecule
   40    41     1     0     0
SMALL
bcc


@<TRIPOS>ATOM
      1 F3           0.0000     0.0000     0.0000 f          1 SAG      -0.133900
      2 C3           1.3510     0.0000     0.0000 ca         1 SAG       0.135900
      3 C2           2.0440     0.0000     1.1980 ca         1 SAG      -0.144000
      4 C4           2.0430    -0.0050    -1.1990 ca         1 SAG      -0.148000
      5 C5           3.4250    -0.0050    -1.1990 ca         1 SAG      -0.102000
      6 C6           4.1170    -0.0010    -0.0020 ca         1 SAG      -0.118000
      7 C1           3.4260    -0.0000     1.1960 ca         1 SAG      -0.081300
      8 C7           4.1810    -0.0010     2.5000 c3         1 SAG       0.184700
      9 O8           4.4200    -1.3480     2.9120 os         1 SAG      -0.308900
     10 C9           5.0940    -1.5260     4.0770 ca         1 SAG       0.194100
     11 C10          5.3580    -2.8110     4.5350 ca         1 SAG      -0.203500
     12 C11          6.0420    -2.9970     5.7160 ca         1 SAG      -0.034500
     13 C14          5.5220    -0.4230     4.8060 ca         1 SAG      -0.203500
     14 C13          6.2070    -0.5990     5.9870 ca         1 SAG      -0.034500
     15 C12          6.4710    -1.8900     6.4540 ca         1 SAG      -0.239900
     16 C15          7.2020    -2.0840     7.7190 ce         1 SAG       0.565800
     17 N16          7.5980    -1.0570     8.4010 n2         1 SAG      -0.644900
     18 C17          8.3260    -1.2500     9.6580 c3         1 SAG       0.057500
     19 C18          9.7080    -0.6020     9.5520 c3         1 SAG      -0.097100
     20 C19          7.5580    -0.6110    10.7860 c          1 SAG       0.471100
     21 O20          6.5060    -0.0500    10.5620 o          1 SAG      -0.367100
     22 N21          8.0390    -0.6620    12.0440 nz         1 SAG      -0.684400
     23 H2           1.5030     0.0010     2.1360 ha         1 SAG       0.148000
     24 H4           1.5010    -0.0090    -2.1380 ha         1 SAG       0.154000
     25 H5           3.9660    -0.0080    -2.1370 ha         1 SAG       0.145000
     26 H6           5.2000    -0.0010    -0.0020 ha         1 SAG       0.137000
     27 H7C1         3.5970     0.5100     3.2550 h1         1 SAG       0.047700
     28 H7C2         5.1280     0.5100     2.3680 h1         1 SAG       0.047700
     29 H10          5.0250    -3.6680     3.9620 ha         1 SAG       0.156000
     30 H14          5.3170     0.5770     4.4430 ha         1 SAG       0.156000
     31 H11          6.2460    -3.9990     6.0730 ha         1 SAG       0.145500
     32 H13          6.5390     0.2610     6.5550 ha         1 SAG       0.145500
     33 H15          7.4090    -3.0850     8.0780 h4         1 SAG      -0.024200
     34 H17          8.4370    -2.3100     9.8520 h1         1 SAG       0.059700
     35 H181        10.1560    -0.8630     8.6010 hc         1 SAG       0.064367
     36 H182        10.3370    -0.9590    10.3580 hc         1 SAG       0.064367
     37 H183         9.6080     0.4740     9.6210 hc         1 SAG       0.064367
     38 H211         8.5640    -1.5060    12.1660 hn         1 SAG       0.475467
     39 H212         7.2780    -0.6460    12.6940 hn         1 SAG       0.475467
     40 H213         8.6330     0.1270    12.2060 hn         1 SAG       0.475467
@<TRIPOS>BOND
     1     1     2 1
     2     2     3 ar
     3     2     4 ar
     4     3     7 ar
     5     3    23 1
     6     4     5 ar
     7     4    24 1
     8     5     6 ar
     9     5    25 1
    10     6     7 ar
    11     6    26 1
    12     7     8 1
    13     8     9 1
    14     8    27 1
    15     8    28 1
    16     9    10 1
    17    10    11 ar
    18    10    13 ar
    19    11    12 ar
    20    11    29 1
    21    12    15 ar
    22    12    31 1
    23    13    14 ar
    24    13    30 1
    25    14    15 ar
    26    14    32 1
    27    15    16 1
    28    16    17 2
    29    16    33 1
    30    17    18 1
    31    18    19 1
    32    18    20 1
    33    18    34 1
    34    19    35 1
    35    19    36 1
    36    19    37 1
    37    20    21 2
    38    20    22 1
    39    22    38 1
    40    22    39 1
    41    40    22 1
@<TRIPOS>SUBSTRUCTURE
     1 SAG         1 TEMP              0 ****  ****    0 ROOT
