@<TRIPOS>MOLECULE
SAG
   40    42     1     0     0
SMALL
bcc


@<TRIPOS>ATOM
      1 F3           0.0000     0.0000     0.0000 f          1 SAG      -0.087000
      2 C3           1.3510     0.0000     0.0000 ca         1 SAG       0.075000
      3 C2           2.0440     0.0000     1.1980 ca         1 SAG      -0.108000
      4 C4           2.0430    -0.0050    -1.1990 ca         1 SAG      -0.110000
      5 C5           3.4250    -0.0050    -1.1990 ca         1 SAG      -0.071000
      6 C6           4.1170    -0.0010    -0.0020 ca         1 SAG      -0.085000
      7 C1           3.4260    -0.0000     1.1960 ca         1 SAG      -0.099000
      8 C7           4.1810    -0.0010     2.5000 c3         1 SAG       0.106000
      9 O8           4.4200    -1.3480     2.9120 os         1 SAG      -0.162000
     10 C9           5.0940    -1.5260     4.0770 c2         1 SAG       0.209000
     11 C10          5.3580    -2.8110     4.5350 c2         1 SAG      -0.215500
     12 C11          6.0420    -2.9970     5.7160 c2         1 SAG       0.045500
     13 C14          5.5220    -0.4230     4.8060 c2         1 SAG      -0.215500
     14 C13          6.2070    -0.5990     5.9870 c2         1 SAG       0.045500
     15 C12          6.4710    -1.8900     6.4540 c3         1 SAG      -0.256000
     16 C15          7.2020    -2.0840     7.7190 c2         1 SAG      -0.326000
     17 N16          7.5980    -1.0570     8.4010 n2         1 SAG      -0.141000
     18 C17          8.3260    -1.2500     9.6580 c3         1 SAG      -0.029000
     19 C18          9.7080    -0.6020     9.5520 c3         1 SAG      -0.114000
     20 C19          7.5580    -0.6110    10.7860 c2         1 SAG       0.017000
     21 O20          6.5060    -0.0500    10.5620 o          1 SAG      -0.158000
     22 N21          8.0390    -0.6620    12.0440 nz         1 SAG       0.806000
     23 H2           1.5030     0.0010     2.1360 ha         1 SAG       0.121000
     24 H4           1.5010    -0.0090    -2.1380 ha         1 SAG       0.126000
     25 H5           3.9660    -0.0080    -2.1370 ha         1 SAG       0.114000
     26 H6           5.2000    -0.0010    -0.0020 ha         1 SAG       0.110000
     27 H7C1         5.1280     0.5100     2.3690 h1         1 SAG       0.050500
     28 H7C2         3.5970     0.5100     3.2550 h1         1 SAG       0.050500
     29 H10          5.0250    -3.6680     3.9620 ha         1 SAG       0.139500
     30 H14          5.3170     0.5770     4.4430 ha         1 SAG       0.139500
     31 H11          6.2460    -3.9990     6.0730 ha         1 SAG       0.125500
     32 H13          6.5390     0.2610     6.5550 ha         1 SAG       0.125500
     33 H15          6.1540    -1.8210     7.6530 DU         1 SAG       0.358000
     34 H17          8.4370    -2.3100     9.8520 h1         1 SAG       0.099000
     35 H181        10.3370    -0.9600    10.3580 hc         1 SAG       0.063333
     36 H182         9.6080     0.4740     9.6220 hc         1 SAG       0.063333
     37 H183        10.1560    -0.8630     8.6010 hc         1 SAG       0.063333
     38 H211         7.2780    -0.6360    12.6940 hn         1 SAG       0.041333
     39 H212         8.5560    -1.5100    12.1690 hn         1 SAG       0.041333
     40 H213         8.6410     0.1220    12.2030 hn         1 SAG       0.041333
@<TRIPOS>BOND
     1     1     2 1   
     2     2     3 1   
     3     2     4 1   
     4     3     7 1   
     5     3    23 1   
     6     4     5 1   
     7     4    24 1   
     8     5     6 1   
     9     5    25 1   
    10     6     7 1   
    11     6    26 1   
    12     7     8 1   
    13     8     9 1   
    14     8    27 1   
    15     8    28 1   
    16     9    10 1   
    17    10    11 1   
    18    10    13 1   
    19    11    12 1   
    20    11    29 1   
    21    12    15 1   
    22    12    31 1   
    23    13    14 1   
    24    13    30 1   
    25    14    15 1   
    26    14    32 1   
    27    15    16 1   
    28    15    33 1   
    29    16    17 1   
    30    16    33 1   
    31    17    18 1   
    32    18    19 1   
    33    18    20 1   
    34    18    34 1   
    35    19    35 1   
    36    19    36 1   
    37    19    37 1   
    38    20    21 1   
    39    20    22 1   
    40    22    38 1   
    41    22    39 1   
    42    22    40 1   
@<TRIPOS>SUBSTRUCTURE
     1 SAG         1 TEMP              0 ****  ****    0 ROOT
