@<TRIPOS>MOLECULE
molecule
   46    48     1     0     0
SMALL
bcc


@<TRIPOS>ATOM
      1 N            0.0000     0.0000     0.0000 nz         1 SAI      -0.801600
      2 CA           1.4680     0.0000     0.0000 c3         1 SAI      -0.017500
      3 CB           1.9780     0.0000     1.4410 c3         1 SAI      -0.085400
      4 CG           1.4700     1.2470     2.1640 c3         1 SAI       0.032700
      5 SE           2.1240     1.2480     4.0120 ss         1 SAI      -0.360200
      6 C            1.9710    -1.2300    -0.7110 c          1 SAI       0.867600
      7 O            3.1420    -1.1960    -1.3640 o          1 SAI      -0.766300
      8 OXT          1.3170    -2.2460    -0.6960 o          1 SAI      -0.766300
      9 C5'          1.2610     2.9370     4.4990 c3         1 SAI       0.056700
     10 C4'          1.5740     3.2680     5.9590 c3         1 SAI       0.130100
     11 O4'          2.9930     3.4310     6.1280 os         1 SAI      -0.402600
     12 C3'          0.9060     4.5990     6.3510 c3         1 SAI       0.088100
     13 O3'         -0.0120     4.4080     7.4280 oh         1 SAI      -0.564800
     14 C2'          2.0900     5.4960     6.8000 c3         1 SAI       0.095100
     15 O2'          1.7420     6.2580     7.9580 oh         1 SAI      -0.554800
     16 C1'          3.1830     4.4490     7.1350 c3         1 SAI       0.260800
     17 N9           4.5180     5.0390     7.0270 na         1 SAI      -0.257000
     18 C8           5.2630     5.1450     5.8910 cc         1 SAI       0.438700
     19 N7           6.3990     5.7220     6.1560 nd         1 SAI      -0.576100
     20 C5           6.4550     6.0210     7.4760 ca         1 SAI      -0.162200
     21 C6           7.4070     6.6300     8.3110 ca         1 SAI       0.777200
     22 N6           8.6130     7.0790     7.8010 nv         1 SAI      -1.073500
     23 N1           7.1220     6.7670     9.6010 nb         1 SAI      -0.769000
     24 C2           5.9730     6.3430    10.0970 ca         1 SAI       0.704900
     25 N3           5.0540     5.7660     9.3520 nb         1 SAI      -0.746000
     26 C4           5.2470     5.5910     8.0490 ca         1 SAI       0.451800
     27 HN1         -0.3340    -0.1030     0.9380 hn         1 SAI       0.439467
     28 HN2         -0.3340     0.8640    -0.3790 hn         1 SAI       0.439467
     29 HA           1.8290     0.8850    -0.5100 hx         1 SAI       0.103700
     30 HB1          1.6170    -0.8850     1.9520 hc         1 SAI       0.101200
     31 HB2          3.0610    -0.0010     1.4410 hc         1 SAI       0.101200
     32 HG1          1.8310     2.1320     1.6530 h1         1 SAI       0.040200
     33 HG2          0.3870     1.2480     2.1640 h1         1 SAI       0.040200
     34 H5'1         1.6330     3.7300     3.8620 h1         1 SAI       0.061700
     35 H5'2         0.1890     2.8450     4.3720 h1         1 SAI       0.061700
     36 H4'          1.2170     2.4760     6.6050 h1         1 SAI       0.091700
     37 H3'          0.4080     5.0360     5.4940 h1         1 SAI       0.043700
     38 HO3'        -0.8840     4.6240     7.1400 ho         1 SAI       0.406000
     39 H2'          2.4120     6.1390     5.9900 h1         1 SAI       0.057700
     40 HO2'         1.5390     7.1420     7.7030 ho         1 SAI       0.407000
     41 H1'          3.0210     4.0380     8.1240 h2         1 SAI       0.120700
     42 H8           4.9560     4.7980     4.9110 h5         1 SAI       0.087800
     43 HN61         8.6930     8.0150     7.4570 hn         1 SAI       0.445300
     44 HN62         9.3960     6.4580     7.7490 hn         1 SAI       0.445300
     45 H2           5.7810     6.4740    11.1550 h5         1 SAI       0.064100
     46 HN3         -0.3340    -0.7580    -0.5620 hn         1 SAI       0.439467
@<TRIPOS>BOND
     1     1     2 1
     2     1    27 1
     3     1    28 1
     4     2     3 1
     5     2     6 1
     6     2    29 1
     7     3     4 1
     8     3    30 1
     9     3    31 1
    10     4     5 1
    11     4    32 1
    12     4    33 1
    13     5     9 1
    14     6     7 1
    15     6     8 1
    16     9    10 1
    17     9    34 1
    18     9    35 1
    19    10    11 1
    20    10    12 1
    21    10    36 1
    22    11    16 1
    23    12    13 1
    24    12    14 1
    25    12    37 1
    26    13    38 1
    27    14    15 1
    28    14    16 1
    29    14    39 1
    30    15    40 1
    31    16    17 1
    32    16    41 1
    33    17    18 1
    34    17    26 1
    35    18    19 2
    36    18    42 1
    37    19    20 1
    38    20    21 ar
    39    20    26 ar
    40    21    22 1
    41    21    23 ar
    42    22    43 1
    43    22    44 1
    44    23    24 ar
    45    24    25 ar
    46    24    45 1
    47    25    26 ar
    48    46     1 1
@<TRIPOS>SUBSTRUCTURE
     1 SAI         1 TEMP              0 ****  ****    0 ROOT
