@<TRIPOS>MOLECULE
molecule
   35    37     1     0     0
SMALL
bcc


@<TRIPOS>ATOM
      1 CAG          0.0000     0.0000     0.0000 ca         1 SAK      -0.094000
      2 CAE          1.3810     0.0000     0.0000 ca         1 SAK      -0.154000
      3 CAO          2.0730     0.0000     1.2020 ca         1 SAK       0.114100
      4 OAC          3.4320     0.0000     1.2060 oh         1 SAK      -0.521100
      5 CAF          1.3760    -0.0010     2.4010 ca         1 SAK      -0.154000
      6 CAH         -0.0060    -0.0020     2.3960 ca         1 SAK      -0.094000
      7 CAR         -0.6940    -0.0020     1.1970 ca         1 SAK      -0.103300
      8 CAU         -2.2000    -0.0010     1.1930 c3         1 SAK       0.206400
      9 OAM         -2.6790    -0.7750     2.2940 os         1 SAK      -0.320900
     10 CAK         -2.7130     1.4400     1.3230 c3         1 SAK      -0.206400
     11 CAN         -4.2300     1.3760     1.3470 c          1 SAK       0.583700
     12 OAB         -4.9120     2.1900     0.7590 o          1 SAK      -0.505100
     13 CAT         -4.8280     0.2810     2.1170 ca         1 SAK      -0.320600
     14 CAS         -4.0060    -0.7720     2.5590 ca         1 SAK       0.238100
     15 CAJ         -4.5690    -1.8140     3.2770 ca         1 SAK      -0.229000
     16 CAP         -5.9280    -1.8150     3.5590 ca         1 SAK       0.225100
     17 OAL         -6.4670    -2.8430     4.2620 os         1 SAK      -0.318900
     18 CAA         -7.8720    -2.7860     4.5190 c3         1 SAK       0.127700
     19 CAI         -6.7420    -0.7730     3.1290 ca         1 SAK      -0.340000
     20 CAQ         -6.2010     0.2770     2.4100 ca         1 SAK       0.248100
     21 OAD         -6.9910     1.2970     1.9910 oh         1 SAK      -0.482100
     22 HAG         -0.5410     0.0000    -0.9390 ha         1 SAK       0.141500
     23 HAE          1.9230     0.0010    -0.9380 ha         1 SAK       0.144500
     24 HOAC         3.7460     0.8890     1.1760 ho         1 SAK       0.421000
     25 HAF          1.9140    -0.0010     3.3410 ha         1 SAK       0.144500
     26 HAH         -0.5510    -0.0030     3.3330 ha         1 SAK       0.141500
     27 HAU         -2.5640    -0.4300     0.2680 h1         1 SAK       0.061700
     28 HAK         -2.3590     1.8620     2.2560 hc         1 SAK       0.086200
     29 HAKA        -2.3940     2.0110     0.4590 hc         1 SAK       0.086200
     30 HAJ         -3.9460    -2.6330     3.6160 ha         1 SAK       0.163000
     31 HAA         -8.0990    -1.8920     5.0880 h1         1 SAK       0.045700
     32 HAAA        -8.1710    -3.6600     5.0860 h1         1 SAK       0.045700
     33 HAAB        -8.4110    -2.7630     3.5800 h1         1 SAK       0.045700
     34 HAI         -7.8010    -0.7850     3.3560 ha         1 SAK       0.145000
     35 HOAD        -7.7540     0.9470     1.5610 ho         1 SAK       0.428000
@<TRIPOS>BOND
     1     1     2 ar
     2     1     7 ar
     3     2     3 ar
     4     3     4 1
     5     3     5 ar
     6     5     6 ar
     7     6     7 ar
     8     7     8 1
     9     8     9 1
    10     8    10 1
    11     9    14 1
    12    10    11 1
    13    11    12 2
    14    11    13 1
    15    13    14 ar
    16    13    20 ar
    17    14    15 ar
    18    15    16 ar
    19    16    17 1
    20    16    19 ar
    21    17    18 1
    22    19    20 ar
    23    20    21 1
    24     1    22 1
    25     2    23 1
    26     4    24 1
    27     5    25 1
    28     6    26 1
    29     8    27 1
    30    10    28 1
    31    10    29 1
    32    15    30 1
    33    18    31 1
    34    18    32 1
    35    18    33 1
    36    19    34 1
    37    21    35 1
@<TRIPOS>SUBSTRUCTURE
     1 SAK         1 TEMP              0 ****  ****    0 ROOT
