@<TRIPOS>MOLECULE
SAK
   35    37     1     0     0
SMALL
bcc


@<TRIPOS>ATOM
      1 CAG        -0.0080   -0.1130   -0.0450 ca        1 SAK     -0.070500
      2 CAE         1.3810   -0.1490   -0.0410 ca        1 SAK     -0.188000
      3 CAO         2.0610   -0.1370    1.1890 ca        1 SAK      0.134100
      4 OAC         3.4340   -0.1760    1.1300 oh        1 SAK     -0.495100
      5 CAF         1.3560   -0.0890    2.4000 ca        1 SAK     -0.188000
      6 CAH        -0.0360   -0.0470    2.3760 ca        1 SAK     -0.070500
      7 CAR        -0.7230   -0.0550    1.1590 ca        1 SAK     -0.134300
      8 CAU        -2.2190    0.0070    1.1170 c3        1 SAK      0.203400
      9 OAM        -2.6980   -0.8140    2.2080 os        1 SAK     -0.319900
     10 CAK        -2.7230    1.4360    1.2440 c3        1 SAK     -0.211400
     11 CAN        -4.2280    1.4790    1.2980 c         1 SAK      0.594700
     12 OAB        -4.8580    2.4120    0.7910 o         1 SAK     -0.513100
     13 CAT        -4.8400    0.3580    2.0160 ca        1 SAK     -0.305600
     14 CAS        -4.0520   -0.7330    2.4440 ca        1 SAK      0.226100
     15 CAJ        -4.5870   -1.8000    3.1740 ca        1 SAK     -0.240000
     16 CAP        -5.9580   -1.7770    3.4820 ca        1 SAK      0.220100
     17 OAL        -6.3990   -2.8610    4.2070 os        1 SAK     -0.317900
     18 CAA        -7.7860   -2.8910    4.5280 c3        1 SAK      0.111700
     19 CAI        -6.7810   -0.7270    3.0650 ca        1 SAK     -0.346000
     20 CAQ        -6.2140    0.3300    2.3340 ca        1 SAK      0.247100
     21 OAD        -6.9710    1.3860    1.9080 oh        1 SAK     -0.455100
     22 HAG        -0.5480   -0.1290   -1.0050 ha        1 SAK      0.142500
     23 HAE         1.9540   -0.1900   -0.9780 ha        1 SAK      0.145500
     24 HOAC        3.7730   -0.1730    2.0370 ho        1 SAK      0.421000
     25 HAF         1.8950   -0.0870    3.3570 ha        1 SAK      0.145500
     26 HAH        -0.6040   -0.0190    3.3190 ha        1 SAK      0.142500
     27 HAU        -2.6050   -0.4530    0.1630 h1        1 SAK      0.064700
     28 HAK        -2.3500    2.0420    0.3780 hc        1 SAK      0.087700
     29 HAKA       -2.3270    1.9010    2.1860 hc        1 SAK      0.087700
     30 HAJ        -3.9520   -2.6340    3.4990 ha        1 SAK      0.172000
     31 HAA        -8.0620   -2.0150    5.1630 h1        1 SAK      0.049367
     32 HAAA       -7.8960   -3.8460    5.1010 h1        1 SAK      0.049367
     33 HAAB       -8.4040   -2.9140    3.5980 h1        1 SAK      0.049367
     34 HAI        -7.8540   -0.7130    3.2970 ha        1 SAK      0.144000
     35 HOAD       -7.8860    1.2410    2.1970 ho        1 SAK      0.421000
@<TRIPOS>BOND
     1    1    2 ar  
     2    1    7 ar  
     3    1   22 1   
     4    2    3 ar  
     5    2   23 1   
     6    3    4 1   
     7    3    5 ar  
     8    4   24 1   
     9    5    6 ar  
    10    5   25 1   
    11    6    7 ar  
    12    6   26 1   
    13    7    8 1   
    14    8    9 1   
    15    8   10 1   
    16    8   27 1   
    17    9   14 1   
    18   10   11 1   
    19   10   28 1   
    20   10   29 1   
    21   11   12 2   
    22   11   13 1   
    23   13   14 ar  
    24   13   20 ar  
    25   14   15 ar  
    26   15   16 ar  
    27   15   30 1   
    28   16   17 1   
    29   16   19 ar  
    30   17   18 1   
    31   18   31 1   
    32   18   32 1   
    33   18   33 1   
    34   19   20 ar  
    35   19   34 1   
    36   20   21 1   
    37   21   35 1   
@<TRIPOS>SUBSTRUCTURE
     1 SAK         1 TEMP              0 ****  ****    0 ROOT
