@<TRIPOS>MOLECULE
SAL
   15    15     1     0     0
SMALL
bcc


@<TRIPOS>ATOM
      1 C1'         0.0680    0.1400   -0.0500 c         1 SAL      0.916200
      2 O1'         1.3360    0.2180   -0.0920 o         1 SAL     -0.835800
      3 O2'        -0.5820    0.1140    1.0300 o         1 SAL     -0.835800
      4 C1         -0.6980    0.0740   -1.3560 ca        1 SAL     -0.213600
      5 C2         -0.0700    0.0960   -2.6180 ca        1 SAL      0.176100
      6 C3         -0.8350    0.0320   -3.8000 ca        1 SAL     -0.212000
      7 C4         -2.2200   -0.0530   -3.7210 ca        1 SAL     -0.118000
      8 C5         -2.8530   -0.0760   -2.4790 ca        1 SAL     -0.211000
      9 C6         -2.0910   -0.0120   -1.3120 ca        1 SAL     -0.069000
     10 O2          1.2830    0.1770   -2.8020 oh        1 SAL     -0.555100
     11 H3         -0.3220    0.0500   -4.7710 ha        1 SAL      0.121000
     12 H4         -2.8150   -0.1030   -4.6430 ha        1 SAL      0.100000
     13 H5         -3.9460   -0.1430   -2.4190 ha        1 SAL      0.104000
     14 H6         -2.5730   -0.0290   -0.3200 ha        1 SAL      0.150000
     15 HO2         1.7210    0.2170   -1.9240 ho        1 SAL      0.481000
@<TRIPOS>BOND
     1    1    2 1   
     2    1    3 1   
     3    1    4 1   
     4    4    5 ar  
     5    4    9 ar  
     6    5    6 ar  
     7    5   10 1   
     8    6    7 ar  
     9    6   11 1   
    10    7    8 ar  
    11    7   12 1   
    12    8    9 ar  
    13    8   13 1   
    14    9   14 1   
    15   10   15 1   
@<TRIPOS>SUBSTRUCTURE
     1 SAL         1 TEMP              0 ****  ****    0 ROOT
