@<TRIPOS>MOLECULE
molecule
   15    15     1     0     0
SMALL
bcc


@<TRIPOS>ATOM
      1 C1'          0.0000     0.0000     0.0000 c          1 SAL       0.882200
      2 O1'          1.2140     0.0000     0.0000 o          1 SAL      -0.831300
      3 O2'         -0.6720     0.0000     1.1680 o          1 SAL      -0.831300
      4 C1          -0.7380     0.0010    -1.2760 ca         1 SAL      -0.118600
      5 C2          -0.0430     0.0070    -2.4920 ca         1 SAL       0.133100
      6 C3          -0.7470     0.0010    -3.6860 ca         1 SAL      -0.225000
      7 C4          -2.1270     0.0020    -3.6760 ca         1 SAL      -0.134000
      8 C5          -2.8190     0.0020    -2.4750 ca         1 SAL      -0.186000
      9 C6          -2.1350     0.0010    -1.2790 ca         1 SAL      -0.076000
     10 O2           1.3140     0.0060    -2.5020 oh         1 SAL      -0.470100
     11 H3          -0.2130     0.0030    -4.6290 ha         1 SAL       0.106000
     12 H4          -2.6730    -0.0000    -4.6120 ha         1 SAL       0.099000
     13 H5          -3.9020     0.0020    -2.4770 ha         1 SAL       0.104000
     14 H6          -2.6800     0.0010    -0.3430 ha         1 SAL       0.156000
     15 HO2          1.6250     0.7070    -3.0500 ho         1 SAL       0.390000
@<TRIPOS>BOND
     1     1     2 1
     2     1     3 1
     3     1     4 1
     4     4     5 ar
     5     4     9 ar
     6     5     6 ar
     7     5    10 1
     8     6     7 ar
     9     6    11 1
    10     7     8 ar
    11     7    12 1
    12     8     9 ar
    13     8    13 1
    14     9    14 1
    15    10    15 1
@<TRIPOS>SUBSTRUCTURE
     1 SAL         1 TEMP              0 ****  ****    0 ROOT
