@<TRIPOS>MOLECULE
SAN
   20    20     1     0     0
SMALL
bcc


@<TRIPOS>ATOM
      1 C1           0.0000     0.0000     0.0000 ca         1 SAN       0.137600
      2 N1          -0.7000     0.0010    -1.2100 nv         1 SAN      -0.505200
      3 C2           1.3890     0.0000     0.0000 ca         1 SAN      -0.145000
      4 C3           2.0770     0.0000     1.1980 ca         1 SAN       0.030500
      5 C4           1.3850     0.0000     2.3940 ca         1 SAN      -0.256500
      6 C5           0.0030    -0.0010     2.3980 ca         1 SAN       0.030500
      7 C6          -0.6920     0.0040     1.2040 ca         1 SAN      -0.145000
      8 S            2.2670    -0.0020     3.9200 sy         1 SAN       0.938200
      9 N2           2.5150     1.5780     4.3480 nz         1 SAN      -0.132500
     10 O1           1.3680    -0.5280     4.8860 o          1 SAN      -0.498800
     11 O2           3.5530    -0.5270     3.6210 o          1 SAN      -0.498800
     12 HN11        -0.6290    -0.7820    -1.8290 hn         1 SAN       0.294800
     13 HN12        -1.2610     0.7900    -1.4630 hn         1 SAN       0.294800
     14 H2           1.9300     0.0800    -0.9350 ha         1 SAN       0.135000
     15 H3           3.1600    -0.0150     1.2000 ha         1 SAN       0.124000
     16 H5          -0.5360     0.0060     3.3380 ha         1 SAN       0.124000
     17 H6          -1.7740     0.0530     1.2080 ha         1 SAN       0.135000
     18 HN21         3.0160     1.6140     5.2140 hn         1 SAN       0.313133
     19 HN22         1.6320     2.0370     4.4540 hn         1 SAN       0.313133
     20 H23          3.0470     2.0370     3.6360 hn         1 SAN       0.313133
@<TRIPOS>BOND
     1     1     2 1   
     2     1     3 ar  
     3     1     7 ar  
     4     2    12 1   
     5     2    13 1   
     6     3     4 ar  
     7     3    14 1   
     8     4     5 ar  
     9     4    15 1   
    10     5     6 ar  
    11     5     8 1   
    12     6     7 ar  
    13     6    16 1   
    14     7    17 1   
    15     8     9 1   
    16     8    10 2   
    17     8    11 2   
    18     9    18 1   
    19     9    19 1   
    20     9    20 1   
@<TRIPOS>SUBSTRUCTURE
     1 SAN         1 TEMP              0 ****  ****    0 ROOT
