@<TRIPOS>MOLECULE
SAP
   45    47     1     0     0
SMALL
bcc


@<TRIPOS>ATOM
      1 PG           0.0000     0.0000     0.0000 p5         1 SAP       0.759200
      2 S1G          1.8640     0.0000     0.0000 s          1 SAP      -0.390000
      3 O2G         -0.5360     0.0000     1.5180 oh         1 SAP      -0.623900
      4 O3G         -0.5360     1.3150    -0.7580 oh         1 SAP      -0.623900
      5 PB          -0.3640    -1.8920    -2.2520 p5         1 SAP       0.958800
      6 O1B          1.0550    -1.7860    -2.6600 o          1 SAP      -0.625500
      7 O2B         -1.2800    -1.0420    -3.2660 o          1 SAP      -0.625500
      8 O3B         -0.5370    -1.3140    -0.7590 os         1 SAP      -0.407800
      9 PA          -0.5300    -4.6650    -3.2840 p5         1 SAP       0.960800
     10 O1A         -0.5610    -4.1830    -4.6820 o          1 SAP      -0.673500
     11 O2A          0.9200    -5.2890    -2.9630 o          1 SAP      -0.673500
     12 O3A         -0.8180    -3.4370    -2.2840 os         1 SAP      -0.493800
     13 O5'         -1.6570    -5.7970    -3.0820 os         1 SAP      -0.499200
     14 C5'         -1.7400    -6.9690    -3.8960 c3         1 SAP       0.309400
     15 C4'         -2.9200    -7.8270    -3.4360 c3         1 SAP       0.138100
     16 O4'         -4.1550    -7.1390    -3.6940 os         1 SAP      -0.362600
     17 C3'         -2.9520    -9.1430    -4.2370 c3         1 SAP       0.126100
     18 O3'         -2.8290   -10.2660    -3.3610 oh         1 SAP      -0.566800
     19 C2'         -4.3430    -9.1390    -4.9170 c3         1 SAP       0.121100
     20 O2'         -4.9340   -10.4390    -4.8780 oh         1 SAP      -0.553800
     21 C1'         -5.1360    -8.1440    -4.0310 c3         1 SAP       0.133800
     22 N9          -6.2430    -7.5520    -4.7850 na         1 SAP       0.231000
     23 C8          -6.1970    -6.4050    -5.5190 cc         1 SAP       0.287700
     24 N7          -7.3610    -6.1730    -6.0550 nd         1 SAP      -0.529100
     25 C5          -8.2240    -7.1540    -5.6990 ca         1 SAP      -0.236200
     26 C6          -9.5770    -7.4250    -5.9680 ca         1 SAP       0.583200
     27 N6         -10.3230    -6.5790    -6.7690 nv         1 SAP      -0.504500
     28 N1         -10.1220    -8.5140    -5.4380 nb         1 SAP      -0.765000
     29 C2          -9.4170    -9.3280    -4.6720 ca         1 SAP       0.657900
     30 N3          -8.1490    -9.1140    -4.3920 nb         1 SAP      -0.653000
     31 C4          -7.5160    -8.0530    -4.8840 ca         1 SAP       0.256800
     32 HOG2         0.1080     0.4000     2.0790 ho         1 SAP       0.411500
     33 HOG3        -0.2050     2.0850    -0.3250 ho         1 SAP       0.411500
     34 H5'1        -0.8220    -7.5380    -3.8040 h1         1 SAP      -0.016800
     35 H5'2        -1.8840    -6.6810    -4.9300 h1         1 SAP      -0.016800
     36 H4'         -2.8350    -8.0440    -2.3780 h1         1 SAP       0.042700
     37 H3'         -2.1680    -9.1490    -4.9840 h1         1 SAP       0.019700
     38 HO3'        -2.0580   -10.7590    -3.5890 ho         1 SAP       0.381000
     39 H2'         -4.2700    -8.7720    -5.9340 h1         1 SAP       0.018700
     40 HO2'        -4.8130   -10.8650    -5.7100 ho         1 SAP       0.376000
     41 H1'         -5.4960    -8.6370    -3.1360 h2         1 SAP       0.061700
     42 H8          -5.3220    -5.7780    -5.6390 h5         1 SAP       0.066800
     43 HN61        -9.9010    -5.7610    -7.1630 hn         1 SAP       0.270800
     44 HN62       -11.2850    -6.7840    -6.9530 hn         1 SAP       0.270800
     45 H2          -9.9000   -10.2060    -4.2600 h5         1 SAP      -0.015900
@<TRIPOS>BOND
     1     1     2 2   
     2     1     3 1   
     3     1     4 1   
     4     1     8 1   
     5     3    32 1   
     6     4    33 1   
     7     5     6 1   
     8     5     7 1   
     9     5     8 1   
    10     5    12 1   
    11     9    10 1   
    12     9    11 1   
    13     9    12 1   
    14     9    13 1   
    15    13    14 1   
    16    14    15 1   
    17    14    34 1   
    18    14    35 1   
    19    15    16 1   
    20    15    17 1   
    21    15    36 1   
    22    16    21 1   
    23    17    18 1   
    24    17    19 1   
    25    17    37 1   
    26    18    38 1   
    27    19    20 1   
    28    19    21 1   
    29    19    39 1   
    30    20    40 1   
    31    21    22 1   
    32    21    41 1   
    33    22    23 1   
    34    22    31 1   
    35    23    24 2   
    36    23    42 1   
    37    24    25 1   
    38    25    26 ar  
    39    25    31 ar  
    40    26    27 1   
    41    26    28 ar  
    42    27    43 1   
    43    27    44 1   
    44    28    29 ar  
    45    29    30 ar  
    46    29    45 1   
    47    30    31 ar  
@<TRIPOS>SUBSTRUCTURE
     1 SAP         1 TEMP              0 ****  ****    0 ROOT
