@<TRIPOS>MOLECULE
molecule
   32    35     1     0     0
SMALL
bcc


@<TRIPOS>ATOM
      1 N1           0.0000     0.0000     0.0000 ns         1 SAQ      -0.482400
      2 N3          -0.1260     0.0000     2.3370 nc         1 SAQ      -0.635100
      3 C4           1.2270     0.0010     2.4700 ca         1 SAQ       0.175400
      4 C5           2.0300     0.0000     1.3030 ca         1 SAQ      -0.206600
      5 C6           1.3520     0.0000     0.0000 c          1 SAQ       0.712100
      6 C7           3.4200     0.0020     1.4040 ca         1 SAQ      -0.044000
      7 C8           4.0110     0.0030     2.6500 ca         1 SAQ      -0.120200
      8 C10          1.8290     0.0020     3.7220 ca         1 SAQ      -0.086000
      9 N12          5.3310     0.0030     3.0810 na         1 SAQ      -0.301300
     10 C13          5.3110     0.0040     4.4460 cc         1 SAQ       0.692700
     11 C2          -0.6940    -0.0000     1.1700 cd         1 SAQ       0.490800
     12 C9           3.2200     0.0030     3.8190 ca         1 SAQ       0.168400
     13 N14          4.0710     0.0040     4.8760 nd         1 SAQ      -0.677100
     14 N15          6.4260     0.0050     5.2530 nu         1 SAQ      -0.873200
     15 O16          1.9840     0.0000    -1.0410 o          1 SAQ      -0.632500
     16 C25          7.7630     0.0050     4.6540 c3         1 SAQ       0.317100
     17 C11          8.8020     0.0050     5.7460 cd         1 SAQ      -0.074400
     18 S1           9.5010     1.4430     6.4800 ss         1 SAQ      -0.137800
     19 C12         10.5020     0.4530     7.5330 cd         1 SAQ      -0.057100
     20 C131        10.2710    -0.8370     7.2890 cc         1 SAQ      -0.163000
     21 C14          9.3280    -1.0850     6.3060 cc         1 SAQ      -0.126000
     22 HN1         -0.4950    -0.0010    -0.8700 hn         1 SAQ       0.335500
     23 H7           4.0280    -0.1250     0.5160 ha         1 SAQ       0.149000
     24 H10          1.2240     0.1090     4.6140 ha         1 SAQ       0.162000
     25 HN12         6.1460     0.0030     2.4990 hn         1 SAQ       0.302700
     26 H2          -1.7760    -0.0000     1.1260 h5         1 SAQ       0.052800
     27 HN15         6.3230     0.0390     6.2480 hn         1 SAQ       0.479800
     28 H25          7.8840     0.8890     4.0400 h1         1 SAQ       0.048200
     29 H25A         7.8840    -0.8800     4.0400 h1         1 SAQ       0.048200
     30 H9          11.2030     0.8340     8.2670 h4         1 SAQ       0.175000
     31 H101        10.7770    -1.6320     7.8240 ha         1 SAQ       0.153000
     32 H11          9.0450    -2.0880     6.0090 ha         1 SAQ       0.154000
@<TRIPOS>BOND
     1     1     5 1
     2     1    11 1
     3     2     3 1
     4     2    11 2
     5     3     4 ar
     6     3     8 ar
     7     4     5 1
     8     4     6 ar
     9     5    15 2
    10     6     7 ar
    11     7     9 1
    12     7    12 ar
    13     8    12 ar
    14     9    10 1
    15    10    13 2
    16    10    14 1
    17    12    13 1
    18    14    16 1
    19    16    17 1
    20    21    17 2
    21    18    17 1
    22    18    19 1
    23    19    20 2
    24    20    21 1
    25     1    22 1
    26     6    23 1
    27     8    24 1
    28     9    25 1
    29    11    26 1
    30    14    27 1
    31    16    28 1
    32    16    29 1
    33    19    30 1
    34    20    31 1
    35    21    32 1
@<TRIPOS>SUBSTRUCTURE
     1 SAQ         1 TEMP              0 ****  ****    0 ROOT
