@<TRIPOS>MOLECULE
SAQ
   32    35     1     0     0
SMALL
bcc


@<TRIPOS>ATOM
      1 N1           0.0000     0.0000     0.0000 ns         1 SAQ      -0.027400
      2 N3          -0.1260     0.0000     2.3370 nc         1 SAQ      -0.526100
      3 C4           1.2270     0.0010     2.4700 ca         1 SAQ       0.131400
      4 C5           2.0300     0.0000     1.3030 ca         1 SAQ      -0.219600
      5 C6           1.3520     0.0000     0.0000 c          1 SAQ       0.624100
      6 C7           3.4200     0.0020     1.4040 ca         1 SAQ       0.009000
      7 C8           4.0110     0.0030     2.6500 ca         1 SAQ      -0.298200
      8 C10          1.8290     0.0020     3.7220 ca         1 SAQ      -0.055000
      9 N12          5.3310     0.0030     3.0810 na         1 SAQ       0.210700
     10 C13          5.3110     0.0040     4.4460 cc         1 SAQ       0.357700
     11 C2          -0.6940    -0.0000     1.1700 cd         1 SAQ       0.315800
     12 C9           3.2200     0.0030     3.8190 ca         1 SAQ       0.143400
     13 N14          4.0710     0.0040     4.8760 nd         1 SAQ      -0.611100
     14 N15          6.4260     0.0050     5.2530 nu         1 SAQ      -0.468200
     15 O16          1.9840     0.0000    -1.0410 o          1 SAQ      -0.675500
     16 C25          7.7630     0.0050     4.6540 c3         1 SAQ       0.265100
     17 C11          8.8020     0.0050     5.7460 cc         1 SAQ      -0.031400
     18 S1           9.5010     1.4430     6.4800 ss         1 SAQ      -0.256800
     19 C12         10.5020     0.4530     7.5330 cc         1 SAQ       0.024900
     20 C131        10.2710    -0.8370     7.2890 cd         1 SAQ      -0.132000
     21 C14          9.3280    -1.0850     6.3060 cd         1 SAQ      -0.096000
     22 HN1         -0.4950    -0.0010    -0.8700 hn         1 SAQ       0.179500
     23 H7           4.0280    -0.1250     0.5160 ha         1 SAQ       0.119000
     24 H10          1.2240     0.1090     4.6140 ha         1 SAQ       0.128000
     25 HN12         6.1460     0.0030     2.4990 hn         1 SAQ       0.132700
     26 H2          -1.7760    -0.0000     1.1260 h5         1 SAQ       0.000800
     27 HN15         6.3230     0.0390     6.2480 hn         1 SAQ       0.322800
     28 H25          7.8840     0.8890     4.0400 h1         1 SAQ       0.015200
     29 H25A         7.8840    -0.8800     4.0400 h1         1 SAQ       0.015200
     30 H9          11.2030     0.8340     8.2670 h4         1 SAQ       0.151000
     31 H101        10.7770    -1.6320     7.8240 ha         1 SAQ       0.125000
     32 H11          9.0450    -2.0880     6.0090 ha         1 SAQ       0.124000
@<TRIPOS>BOND
     1     1     5 1   
     2     1    11 1   
     3     1    22 1   
     4     2     3 1   
     5     2    11 2   
     6     3     4 ar  
     7     3     8 ar  
     8     4     5 1   
     9     4     6 ar  
    10     5    15 2   
    11     6     7 ar  
    12     6    23 1   
    13     7     9 1   
    14     7    12 ar  
    15     8    12 ar  
    16     8    24 1   
    17     9    10 1   
    18     9    25 1   
    19    10    13 2   
    20    10    14 1   
    21    11    26 1   
    22    12    13 1   
    23    14    16 1   
    24    14    27 1   
    25    16    17 1   
    26    16    28 1   
    27    16    29 1   
    28    17    18 1   
    29    17    21 2   
    30    18    19 1   
    31    19    20 2   
    32    19    30 1   
    33    20    21 1   
    34    20    31 1   
    35    21    32 1   
@<TRIPOS>SUBSTRUCTURE
     1 SAQ         1 TEMP              0 ****  ****    0 ROOT
