@<TRIPOS>MOLECULE
molecule
   41    43     1     0     0
SMALL
bcc


@<TRIPOS>ATOM
      1 C1           0.0000     0.0000     0.0000 ca         1 SAS       0.692200
      2 C2           1.3910     0.0000     0.0000 ca         1 SAS      -0.293300
      3 C3           2.0640     0.0000     1.2080 ca         1 SAS      -0.062000
      4 C4           1.3200    -0.0010     2.3800 ca         1 SAS      -0.291300
      5 C5          -0.0580     0.0000     2.3070 ca         1 SAS       0.475200
      6 N1          -0.6740     0.0050     1.1400 nb         1 SAS      -0.741000
      7 N2          -0.6890     0.0000    -1.2070 nu         1 SAS      -0.855800
      8 S1          -2.3440     0.0010    -1.2150 sy         1 SAS       1.427200
      9 O1          -2.7340    -1.0860    -0.3870 o          1 SAS      -0.633800
     10 O2          -2.7240     0.1770    -2.5730 o          1 SAS      -0.633800
     11 C6          -2.8750     1.4560    -0.3770 ca         1 SAS      -0.325500
     12 C7          -3.0790     2.6250    -1.0880 ca         1 SAS      -0.020500
     13 C8          -3.4940     3.7690    -0.4380 ca         1 SAS      -0.157500
     14 C9          -3.7110     3.7440     0.9420 ca         1 SAS       0.202400
     15 C10         -3.4980     2.5620     1.6540 ca         1 SAS      -0.157500
     16 C11         -3.0880     1.4240     0.9910 ca         1 SAS      -0.020500
     17 N3          -4.1220     4.8730     1.5920 ne         1 SAS      -0.311400
     18 N4          -4.3200     4.8490     2.8660 nf         1 SAS      -0.153400
     19 C12         -4.7330     5.9760     3.5150 ca         1 SAS       0.010400
     20 C13         -4.9480     5.9500     4.8920 ca         1 SAS       0.007000
     21 C14         -5.3680     7.1050     5.5490 ca         1 SAS      -0.146600
     22 C15         -5.5750     8.2840     4.8200 ca         1 SAS       0.188100
     23 C16         -5.3530     8.3020     3.4500 ca         1 SAS      -0.247000
     24 C17         -4.9380     7.1620     2.7980 ca         1 SAS      -0.082000
     25 C18         -5.5990     7.0840     7.0060 c          1 SAS       0.882200
     26 O3          -5.9830     9.4110     5.4550 oh         1 SAS      -0.462100
     27 O4          -5.9640     8.0930     7.5770 o          1 SAS      -0.820800
     28 O5          -5.4030     5.9490     7.7040 o          1 SAS      -0.820800
     29 H2           1.9390    -0.0020    -0.9340 ha         1 SAS       0.134000
     30 H3           3.1470    -0.0000     1.2390 ha         1 SAS       0.135000
     31 H4           1.8160    -0.0030     3.3430 ha         1 SAS       0.141000
     32 H5          -0.6420     0.0020     3.2190 h4         1 SAS       0.034100
     33 HN2         -0.1840    -0.0230    -2.0710 hn         1 SAS       0.463800
     34 H7          -2.9100     2.6430    -2.1580 ha         1 SAS       0.151500
     35 H8          -3.6550     4.6830    -0.9970 ha         1 SAS       0.152500
     36 H10         -3.6640     2.5360     2.7240 ha         1 SAS       0.152500
     37 H11         -2.9230     0.5070     1.5420 ha         1 SAS       0.151500
     38 H13         -4.7860     5.0350     5.4500 ha         1 SAS       0.177000
     39 H16         -5.5120     9.2160     2.8890 ha         1 SAS       0.119000
     40 H17         -4.7670     7.1830     1.7290 ha         1 SAS       0.139000
     41 HO3         -6.7420     9.7610     5.0190 ho         1 SAS       0.403000
@<TRIPOS>BOND
     1     1     2 ar
     2     1     6 ar
     3     1     7 1
     4     2     3 ar
     5     2    29 1
     6     3     4 ar
     7     3    30 1
     8     4     5 ar
     9     4    31 1
    10     5     6 ar
    11     5    32 1
    12     7     8 1
    13     7    33 1
    14     8     9 2
    15     8    10 2
    16     8    11 1
    17    11    12 ar
    18    11    16 ar
    19    12    13 ar
    20    12    34 1
    21    13    14 ar
    22    13    35 1
    23    14    15 ar
    24    14    17 1
    25    15    16 ar
    26    15    36 1
    27    16    37 1
    28    17    18 2
    29    18    19 1
    30    19    20 ar
    31    19    24 ar
    32    20    21 ar
    33    20    38 1
    34    21    22 ar
    35    21    25 1
    36    22    23 ar
    37    22    26 1
    38    23    24 ar
    39    23    39 1
    40    24    40 1
    41    25    27 1
    42    25    28 1
    43    26    41 1
@<TRIPOS>SUBSTRUCTURE
     1 SAS         1 TEMP              0 ****  ****    0 ROOT
