@<TRIPOS>MOLECULE
molecule
   10     9     1     0     0
SMALL
bcc


@<TRIPOS>ATOM
      1 O5           0.0000     0.0000     0.0000 o          1 SAT      -0.751200
      2 S1           1.4210     0.0000     0.0000 s6         1 SAT       1.317800
      3 O3           2.1540     0.0000     1.2170 o          1 SAT      -0.751200
      4 O4           1.7960    -1.3180    -0.6630 o          1 SAT      -0.751200
      5 C2           2.0580     1.2710    -1.1260 c3         1 SAT      -0.346600
      6 C1           1.7440     2.6370    -0.5720 c          1 SAT       0.921600
      7 O1           1.1520     2.7420     0.4760 o          1 SAT      -0.879300
      8 O2           2.1230     3.7360    -1.2420 o          1 SAT      -0.879300
      9 H21          3.1300     1.1600    -1.2270 h1         1 SAT       0.059700
     10 H22          1.5900     1.1600    -2.0970 h1         1 SAT       0.059700
@<TRIPOS>BOND
     1     1     2 1
     2     2     3 1
     3     2     4 1
     4     2     5 1
     5     5     6 1
     6     6     7 1
     7     6     8 1
     8     5     9 1
     9     5    10 1
@<TRIPOS>SUBSTRUCTURE
     1 SAT         1 TEMP              0 ****  ****    0 ROOT
