@<TRIPOS>MOLECULE
SAT
   10     9     1     0     0
SMALL
bcc


@<TRIPOS>ATOM
      1 O5         -0.0690    0.1090   -0.1120 o         1 SAT     -0.775200
      2 S1          1.3200   -0.1330   -0.2860 s6        1 SAT      1.410800
      3 O3          1.9170   -0.6820    0.9030 o         1 SAT     -0.775200
      4 O4          1.5700   -1.0050   -1.4040 o         1 SAT     -0.775200
      5 C2          2.2430    1.3100   -0.6270 c3        1 SAT     -0.406600
      6 C1          1.6050    2.6960   -0.7230 c         1 SAT      0.956600
      7 O1          1.5560    3.4250    0.3150 o         1 SAT     -0.882300
      8 O2          1.2280    3.1240   -1.8570 o         1 SAT     -0.882300
      9 H21         2.7650    1.1490   -1.6050 h1        1 SAT      0.064700
     10 H22         3.0330    1.3950    0.1610 h1        1 SAT      0.064700
@<TRIPOS>BOND
     1    1    2 1   
     2    2    3 1   
     3    2    4 1   
     4    2    5 1   
     5    5    6 1   
     6    5    9 1   
     7    5   10 1   
     8    6    7 1   
     9    6    8 1   
@<TRIPOS>SUBSTRUCTURE
     1 SAT         1 TEMP              0 ****  ****    0 ROOT
