@<TRIPOS>MOLECULE
SAU
   39    44     1     0     0
SMALL
bcc


@<TRIPOS>ATOM
      1 N          -0.0870   -0.1500   -0.0190 na        1 SAU      0.036900
      2 C1          3.3000   -0.0050   -5.6660 c3        1 SAU      0.320200
      3 O1          2.1050    0.3060   -4.9010 os        1 SAU     -0.319900
      4 C2          3.7490   -0.4050   -3.4650 ca        1 SAU      0.095100
      5 O2          4.3110   -0.4560   -4.7270 os        1 SAU     -0.310900
      6 C3          2.3900    0.0490   -3.5740 ca        1 SAU      0.106100
      7 O3         -1.1650    1.4530    5.6380 os        1 SAU     -0.304900
      8 C4          4.3180   -0.6670   -2.2530 ca        1 SAU     -0.108000
      9 O4         -2.2350    1.0310    3.6000 os        1 SAU     -0.325900
     10 C5          3.4890   -0.4990   -1.1000 ca        1 SAU     -0.018000
     11 C6          2.1140   -0.1550   -1.2090 ca        1 SAU     -0.025000
     12 C7          1.5760    0.1970   -2.4860 ca        1 SAU     -0.158000
     13 C8          4.0850   -0.6230    0.1860 ca        1 SAU     -0.062000
     14 C9          3.3740   -0.3380    1.3180 ca        1 SAU     -0.128000
     15 C10         1.3280   -0.1140    0.0020 ca        1 SAU     -0.016300
     16 C12        -0.7880    0.1460    1.0840 ca        1 SAU      0.069700
     17 C13        -0.1640    0.4560    2.3200 ca        1 SAU     -0.107000
     18 C14         1.2570    0.3300    2.4500 ca        1 SAU      0.025000
     19 C15         1.9870   -0.0340    1.2590 ca        1 SAU     -0.005000
     20 C18         1.8730    0.5860    3.6880 ca        1 SAU     -0.126000
     21 C19         1.1530    0.9710    4.8210 ca        1 SAU     -0.031000
     22 C20        -0.2260    1.0920    4.6850 ca        1 SAU      0.064100
     23 C21        -0.8760    0.8400    3.4590 ca        1 SAU      0.114100
     24 C23        -2.4600    1.4290    4.9860 c3        1 SAU      0.324200
     25 C25        -0.8220   -0.6780   -1.1630 c3        1 SAU     -0.032400
     26 H1          3.6620    0.9320   -6.1560 h2        1 SAU      0.098200
     27 H1A         3.0650   -0.8440   -6.3660 h2        1 SAU      0.098200
     28 H4          5.3670   -0.9760   -2.1450 ha        1 SAU      0.180000
     29 H7          0.5810    0.6430   -2.6080 ha        1 SAU      0.160000
     30 H8          5.1470   -0.9160    0.2500 ha        1 SAU      0.167000
     31 H9          3.8780   -0.3680    2.2980 ha        1 SAU      0.161000
     32 H12        -1.9000    0.1190    1.0300 h4        1 SAU      0.209000
     33 H18         2.9690    0.5020    3.7850 ha        1 SAU      0.168000
     34 H19         1.6520    1.1750    5.7820 ha        1 SAU      0.188000
     35 H23        -3.0960    0.6510    5.4760 h2        1 SAU      0.102200
     36 H23A       -2.8850    2.4630    4.9890 h2        1 SAU      0.102200
     37 H25        -1.6910   -1.2900   -0.7970 h1        1 SAU      0.097367
     38 H25A       -0.1540   -1.3410   -1.7760 h1        1 SAU      0.097367
     39 H25B       -1.2130    0.1710   -1.7870 h1        1 SAU      0.097367
@<TRIPOS>BOND
     1    1   15 1   
     2    1   16 2   
     3    1   25 1   
     4    2    3 1   
     5    2    5 1   
     6    2   26 1   
     7    2   27 1   
     8    3    6 1   
     9    4    5 1   
    10    4    6 ar  
    11    4    8 ar  
    12    6   12 ar  
    13    7   22 1   
    14    7   24 1   
    15    8   10 ar  
    16    8   28 1   
    17    9   23 1   
    18    9   24 1   
    19   10   11 ar  
    20   10   13 ar  
    21   11   12 ar  
    22   11   15 ar  
    23   12   29 1   
    24   13   14 ar  
    25   13   30 1   
    26   14   19 ar  
    27   14   31 1   
    28   15   19 ar  
    29   16   17 ar  
    30   16   32 1   
    31   17   18 ar  
    32   17   23 ar  
    33   18   19 ar  
    34   18   20 ar  
    35   20   21 ar  
    36   20   33 1   
    37   21   22 ar  
    38   21   34 1   
    39   22   23 ar  
    40   24   35 1   
    41   24   36 1   
    42   25   37 1   
    43   25   38 1   
    44   25   39 1   
@<TRIPOS>SUBSTRUCTURE
     1 SAU         1 TEMP              0 ****  ****    0 ROOT
