@<TRIPOS>MOLECULE
molecule
   39    44     1     0     0
SMALL
bcc


@<TRIPOS>ATOM
      1 N            0.0000     0.0000     0.0000 na         1 SAU       0.076900
      2 C1           3.1620    -0.3610    -5.6240 c3         1 SAU       0.340200
      3 O1           2.2870     0.5110    -4.8950 os         1 SAU      -0.317900
      4 C2           3.7760    -0.3130    -3.4640 ca         1 SAU       0.089100
      5 O2           4.2790    -0.3960    -4.7270 os         1 SAU      -0.311900
      6 C3           2.4920     0.2480    -3.5730 ca         1 SAU       0.103100
      7 O3          -1.2390     1.5160     5.5220 os         1 SAU      -0.309900
      8 C4           4.2800    -0.6500    -2.2340 ca         1 SAU      -0.100000
      9 O4          -2.2150     1.2730     3.5820 os         1 SAU      -0.325900
     10 C5           3.5120    -0.4220    -1.0820 ca         1 SAU      -0.023000
     11 C6           2.1660     0.0100    -1.2010 ca         1 SAU      -0.023000
     12 C7           1.7060     0.4130    -2.4570 ca         1 SAU      -0.145000
     13 C8           4.0910    -0.5700     0.1970 ca         1 SAU      -0.042000
     14 C9           3.3680    -0.3380     1.3160 ca         1 SAU      -0.136000
     15 C10          1.3300     0.0000     0.0000 ca         1 SAU      -0.037300
     16 C12         -0.7230     0.3390     1.0420 ca         1 SAU       0.038700
     17 C13         -0.1410     0.5830     2.2970 ca         1 SAU      -0.089000
     18 C14          1.2570     0.3860     2.4420 ca         1 SAU       0.015000
     19 C15          2.0080     0.0000     1.2460 ca         1 SAU       0.008000
     20 C18          1.8550     0.5620     3.6880 ca         1 SAU      -0.114000
     21 C19          1.0950     0.9360     4.7610 ca         1 SAU      -0.037000
     22 C20         -0.2740     1.1490     4.6330 ca         1 SAU       0.074100
     23 C21         -0.8970     0.9890     3.4030 ca         1 SAU       0.097100
     24 C23         -2.4960     1.0950     4.9760 c3         1 SAU       0.348200
     25 C25         -0.7560    -0.5000    -1.1510 c3         1 SAU      -0.022400
     26 H1           2.7240    -1.3450    -5.7410 h2         1 SAU       0.092200
     27 H1A          3.4390     0.0720    -6.5770 h2         1 SAU       0.092200
     28 H4           5.2190    -1.1860    -2.1620 ha         1 SAU       0.171000
     29 H7           0.7300     0.8720    -2.5510 ha         1 SAU       0.148000
     30 H8           5.1270    -0.8750     0.2830 ha         1 SAU       0.164000
     31 H9           3.8470    -0.4140     2.2840 ha         1 SAU       0.159000
     32 H12         -1.7970     0.4330     0.9310 h4         1 SAU       0.204000
     33 H18          2.9070     0.3390     3.8210 ha         1 SAU       0.170000
     34 H19          1.5670     1.0690     5.7270 ha         1 SAU       0.175000
     35 H23         -3.3010     1.7430     5.3000 h2         1 SAU       0.096200
     36 H23A        -2.6950     0.0550     5.2060 h2         1 SAU       0.096200
     37 H25         -1.0340     0.3310    -1.7890 h1         1 SAU       0.092033
     38 H25A        -1.6510    -1.0030    -0.8040 h1         1 SAU       0.092033
     39 H25B        -0.1440    -1.1970    -1.7100 h1         1 SAU       0.092033
@<TRIPOS>BOND
     1     1    15 1
     2     1    16 2
     3     1    25 1
     4     2     3 1
     5     2     5 1
     6     3     6 1
     7     4     5 1
     8     4     6 ar
     9     4     8 ar
    10     6    12 ar
    11     7    22 1
    12     7    24 1
    13     8    10 ar
    14     9    23 1
    15     9    24 1
    16    10    11 ar
    17    10    13 ar
    18    11    12 ar
    19    11    15 ar
    20    13    14 ar
    21    14    19 ar
    22    15    19 ar
    23    16    17 ar
    24    17    18 ar
    25    17    23 ar
    26    18    19 ar
    27    18    20 ar
    28    20    21 ar
    29    21    22 ar
    30    22    23 ar
    31     2    26 1
    32     2    27 1
    33     8    28 1
    34    12    29 1
    35    13    30 1
    36    14    31 1
    37    16    32 1
    38    20    33 1
    39    21    34 1
    40    24    35 1
    41    24    36 1
    42    25    37 1
    43    25    38 1
    44    25    39 1
@<TRIPOS>SUBSTRUCTURE
     1 SAU         1 TEMP              0 ****  ****    0 ROOT
