@<TRIPOS>MOLECULE
SAV
   52    55     1     0     0
SMALL
bcc


@<TRIPOS>ATOM
      1 N1           0.0000     0.0000     0.0000 nu         1 SAV      -0.293300
      2 N3          -4.0860     1.2560    -1.9380 nu         1 SAV      -0.300300
      3 C4           1.4000     0.0000     0.0000 ca         1 SAV       0.077600
      4 C5          -0.6930     0.7560    -0.9300 ca         1 SAV       0.739900
      5 C6          -0.6480     2.3040    -2.6380 ca         1 SAV       0.523200
      6 C7          -2.0230     2.2290    -2.7360 ca         1 SAV      -0.481600
      7 C8          -2.7060     1.3640    -1.8750 ca         1 SAV       0.565200
      8 C10         -5.9900     0.6350    -0.5860 ca         1 SAV      -0.174000
      9 C13         -6.5120    -2.6930     1.2010 cc         1 SAV       0.398900
     10 C15         -4.8360    -1.8520    -0.1210 ca         1 SAV      -0.164200
     11 C17          2.0930     0.0000     1.2030 ca         1 SAV      -0.258000
     12 C20          4.1740     0.0020     0.0000 ca         1 SAV       0.027100
     13 C21          6.1850     1.2750    -0.0040 c3         1 SAV       0.248700
     14 C1           3.3810    -0.0070    -3.5790 c3         1 SAV       0.239700
     15 C2           3.4790    -0.0030    -1.2030 ca         1 SAV       0.180100
     16 C3           2.0930    -0.0040    -1.2020 ca         1 SAV      -0.258000
     17 N2          -0.0200     1.5640    -1.7360 nb         1 SAV      -0.731000
     18 C9          -4.7500     0.3180    -1.1420 ca         1 SAV       0.034600
     19 C11         -6.6520    -0.2680     0.1930 ca         1 SAV       0.004000
     20 C12         -6.0870    -1.5240     0.4370 ca         1 SAV      -0.272900
     21 N4          -5.5870    -3.6020     1.0870 nd         1 SAV      -0.639100
     22 N5          -4.5430    -3.1270     0.2860 na         1 SAV       0.410900
     23 C16         -4.1730    -0.9180    -0.9130 ca         1 SAV      -0.122000
     24 N6          -2.0130     0.6510    -0.9940 nb         1 SAV      -0.747000
     25 C18          3.4790    -0.0000     1.2040 ca         1 SAV       0.180100
     26 O2           4.1590    -0.0000     2.3820 os         1 SAV      -0.291900
     27 C19          3.3800    -0.0010     3.5800 c3         1 SAV       0.239700
     28 O3           5.5360     0.0020     0.0010 os         1 SAV      -0.308900
     29 HN1         -0.5000    -0.5440     0.6750 hn         1 SAV       0.293800
     30 HN3         -4.6050     1.8320    -2.5710 hn         1 SAV       0.290800
     31 H6          -0.0890     2.9630    -3.2920 h4         1 SAV      -0.021900
     32 H7          -2.5610     2.8230    -3.4650 ha         1 SAV       0.128000
     33 H10         -6.4340     1.6040    -0.7800 ha         1 SAV       0.108000
     34 H17          1.5510    -0.0020     2.1410 ha         1 SAV       0.138000
     35 H21          7.2050     1.1620     0.3450 h1         1 SAV      -0.009967
     36 H21A         6.1910     1.6740    -1.0110 h1         1 SAV      -0.009967
     37 H21B         5.6530     1.9540     0.6510 h1         1 SAV      -0.009967
     38 H1           2.6690    -0.8230    -3.5440 h1         1 SAV      -0.002133
     39 H1A          4.0480    -0.1460    -4.4210 h1         1 SAV      -0.002133
     40 H1B          2.8500     0.9310    -3.6900 h1         1 SAV      -0.002133
     41 H3           1.5510    -0.0080    -2.1400 ha         1 SAV       0.138000
     42 H11         -7.6140    -0.0130     0.6200 ha         1 SAV       0.101000
     43 H14         -8.6370    -2.7910     1.3020 hc         1 SAV       0.012367
     44 H14A        -7.7970    -3.7680     2.5150 hc         1 SAV       0.012367
     45 H14B        -7.8710    -2.0090     2.6910 hc         1 SAV       0.012367
     46 HN5         -3.7150    -3.6360     0.0480 hn         1 SAV       0.152700
     47 H16         -3.2690    -1.2000    -1.4380 ha         1 SAV       0.127000
     48 H19          4.0390     0.0040     4.4400 h1         1 SAV      -0.002133
     49 H19A         2.7590    -0.8880     3.6070 h1         1 SAV      -0.002133
     50 H19B         2.7510     0.8810     3.6020 h1         1 SAV      -0.002133
     51 O1           4.1590    -0.0020    -2.3810 os         1 SAV      -0.291900
     52 C14         -7.7940    -2.8250     1.9820 c3         1 SAV       0.013600
@<TRIPOS>BOND
     1     1     3 1   
     2     1     4 1   
     3     1    29 1   
     4     2     7 1   
     5     2    18 1   
     6     2    30 1   
     7     3    11 ar  
     8     3    16 ar  
     9     4    17 ar  
    10     4    24 ar  
    11     5     6 ar  
    12     5    17 ar  
    13     5    31 1   
    14     6     7 ar  
    15     6    32 1   
    16     7    24 ar  
    17     8    18 ar  
    18     8    19 ar  
    19     8    33 1   
    20     9    20 1   
    21     9    21 2   
    22     9    52 1   
    23    10    20 ar  
    24    10    22 1   
    25    10    23 ar  
    26    11    25 ar  
    27    11    34 1   
    28    12    15 ar  
    29    12    25 ar  
    30    12    28 1   
    31    13    28 1   
    32    13    35 1   
    33    13    36 1   
    34    13    37 1   
    35    14    38 1   
    36    14    39 1   
    37    14    40 1   
    38    14    51 1   
    39    15    16 ar  
    40    15    51 1   
    41    16    41 1   
    42    18    23 ar  
    43    19    20 ar  
    44    19    42 1   
    45    21    22 1   
    46    22    46 1   
    47    23    47 1   
    48    25    26 1   
    49    26    27 1   
    50    27    48 1   
    51    27    49 1   
    52    27    50 1   
    53    43    52 1   
    54    44    52 1   
    55    45    52 1   
@<TRIPOS>SUBSTRUCTURE
     1 SAV         1 TEMP              0 ****  ****    0 ROOT
