@<TRIPOS>MOLECULE
molecule
   52    55     1     0     0
SMALL
bcc


@<TRIPOS>ATOM
      1 N1           0.0000     0.0000     0.0000 nu         1 SAV      -0.756300
      2 N3          -4.0860     1.2560    -1.9380 nu         1 SAV      -0.767300
      3 C4           1.4000     0.0000     0.0000 ca         1 SAV       0.230600
      4 C5          -0.6930     0.7560    -0.9300 ca         1 SAV       0.968900
      5 C6          -0.6480     2.3040    -2.6380 ca         1 SAV       0.520200
      6 C7          -2.0230     2.2290    -2.7360 ca         1 SAV      -0.491600
      7 C8          -2.7060     1.3640    -1.8750 ca         1 SAV       0.758200
      8 C10         -5.9900     0.6350    -0.5860 ca         1 SAV      -0.199000
      9 C13         -6.5120    -2.6930     1.2010 cc         1 SAV       0.376900
     10 C15         -4.8360    -1.8520    -0.1210 ca         1 SAV      -0.002200
     11 C17          2.0930     0.0000     1.2030 ca         1 SAV      -0.265500
     12 C20          4.1740     0.0020     0.0000 ca         1 SAV       0.031100
     13 C21          6.1850     1.2750    -0.0040 c3         1 SAV       0.133700
     14 C1           3.3810    -0.0070    -3.5790 c3         1 SAV       0.126700
     15 C2           3.4790    -0.0030    -1.2030 ca         1 SAV       0.171100
     16 C3           2.0930    -0.0040    -1.2020 ca         1 SAV      -0.265500
     17 N2          -0.0200     1.5640    -1.7360 nb         1 SAV      -0.818000
     18 C9          -4.7500     0.3180    -1.1420 ca         1 SAV       0.191600
     19 C11         -6.6520    -0.2680     0.1930 ca         1 SAV      -0.038000
     20 C12         -6.0870    -1.5240     0.4370 ca         1 SAV      -0.265900
     21 N4          -5.5870    -3.6020     1.0870 nd         1 SAV      -0.505100
     22 N5          -4.5430    -3.1270     0.2860 na         1 SAV      -0.054100
     23 C16         -4.1730    -0.9180    -0.9130 ca         1 SAV      -0.157000
     24 N6          -2.0130     0.6510    -0.9940 nb         1 SAV      -0.847000
     25 C18          3.4790    -0.0000     1.2040 ca         1 SAV       0.171100
     26 O2           4.1590    -0.0000     2.3820 os         1 SAV      -0.309900
     27 C19          3.3800    -0.0010     3.5800 c3         1 SAV       0.126700
     28 O3           5.5360     0.0020     0.0010 os         1 SAV      -0.323900
     29 HN1         -0.5000    -0.5440     0.6750 hn         1 SAV       0.468800
     30 HN3         -4.6050     1.8320    -2.5710 hn         1 SAV       0.461800
     31 H6          -0.0890     2.9630    -3.2920 h4         1 SAV       0.029100
     32 H7          -2.5610     2.8230    -3.4650 ha         1 SAV       0.142000
     33 H10         -6.4340     1.6040    -0.7800 ha         1 SAV       0.132000
     34 H17          1.5510    -0.0020     2.1410 ha         1 SAV       0.150000
     35 H21          7.2050     1.1620     0.3450 h1         1 SAV       0.032700
     36 H21A         6.1910     1.6740    -1.0110 h1         1 SAV       0.032700
     37 H21B         5.6530     1.9540     0.6510 h1         1 SAV       0.032700
     38 H1           2.6690    -0.8230    -3.5440 h1         1 SAV       0.042700
     39 H1A          4.0480    -0.1460    -4.4210 h1         1 SAV       0.042700
     40 H1B          2.8500     0.9310    -3.6900 h1         1 SAV       0.042700
     41 H3           1.5510    -0.0080    -2.1400 ha         1 SAV       0.150000
     42 H11         -7.6140    -0.0130     0.6200 ha         1 SAV       0.133000
     43 H14         -8.6370    -2.7910     1.3020 hc         1 SAV       0.053033
     44 H14A        -7.7970    -3.7680     2.5150 hc         1 SAV       0.053033
     45 H14B        -7.8710    -2.0090     2.6910 hc         1 SAV       0.053033
     46 HN5         -3.7150    -3.6360     0.0480 hn         1 SAV       0.331700
     47 H16         -3.2690    -1.2000    -1.4380 ha         1 SAV       0.151000
     48 H19          4.0390     0.0040     4.4400 h1         1 SAV       0.042700
     49 H19A         2.7590    -0.8880     3.6070 h1         1 SAV       0.042700
     50 H19B         2.7510     0.8810     3.6020 h1         1 SAV       0.042700
     51 O1           4.1590    -0.0020    -2.3810 os         1 SAV      -0.309900
     52 C14         -7.7940    -2.8250     1.9820 c3         1 SAV      -0.092400
@<TRIPOS>BOND
     1     1     3 1
     2     1     4 1
     3     2     7 1
     4     2    18 1
     5     3    11 ar
     6     3    16 ar
     7     4    17 ar
     8     4    24 ar
     9     5     6 ar
    10     5    17 ar
    11     6     7 ar
    12     7    24 ar
    13     8    18 ar
    14     8    19 ar
    15     9    20 1
    16     9    52 1
    17     9    21 2
    18    10    20 ar
    19    10    22 1
    20    10    23 ar
    21    11    25 ar
    22    12    15 ar
    23    12    25 ar
    24    12    28 1
    25    13    28 1
    26    14    51 1
    27    51    15 1
    28    15    16 ar
    29    18    23 ar
    30    19    20 ar
    31    21    22 1
    32    25    26 1
    33    26    27 1
    34     1    29 1
    35     2    30 1
    36     5    31 1
    37     6    32 1
    38     8    33 1
    39    11    34 1
    40    13    35 1
    41    13    36 1
    42    13    37 1
    43    14    38 1
    44    14    39 1
    45    14    40 1
    46    16    41 1
    47    19    42 1
    48    52    43 1
    49    52    44 1
    50    52    45 1
    51    22    46 1
    52    23    47 1
    53    27    48 1
    54    27    49 1
    55    27    50 1
@<TRIPOS>SUBSTRUCTURE
     1 SAV         1 TEMP              0 ****  ****    0 ROOT
