@<TRIPOS>MOLECULE
SAW
   84    88     1     0     0
SMALL
bcc


@<TRIPOS>ATOM
      1 C1           0.0000     0.0000     0.0000 c3         1 SAW      -0.052400
      2 C2           1.5300     0.0000     0.0000 c3         1 SAW      -0.033700
      3 C3           2.0400     0.0000     1.4420 c3         1 SAW      -0.021400
      4 C4           2.0400    -1.2490    -0.7210 c3         1 SAW      -0.012900
      5 C5          -0.5090    -1.2500     0.7230 c3         1 SAW       0.171800
      6 C6           0.0000    -1.2480     2.1640 c3         1 SAW      -0.052400
      7 C7           0.0000    -2.4990     0.0010 c3         1 SAW       0.001600
      8 C8           1.5310    -1.2480     2.1640 c3         1 SAW      -0.033700
      9 C9           1.5300    -2.4990     0.0010 c3         1 SAW      -0.128000
     10 C10          2.0410    -2.4980     1.4430 c3         1 SAW      -0.012900
     11 C11         14.4140   -13.1960    -0.6190 ca         1 SAW      -0.145000
     12 C12         13.6080   -13.2410    -1.7530 ca         1 SAW      -0.066000
     13 C13         13.6480   -12.2470    -2.6830 ca         1 SAW      -0.124000
     14 C14         15.2750   -12.1420    -0.4070 ca         1 SAW       0.036600
     15 C15         15.3370   -11.0960    -1.3540 ca         1 SAW      -0.052000
     16 C16         14.5120   -11.1530    -2.5040 ca         1 SAW       0.052000
     17 C17         14.5730   -10.1120    -3.4480 ca         1 SAW      -0.157500
     18 C18         15.4220    -9.0680    -3.2430 ca         1 SAW       0.034000
     19 C19         16.2330    -9.0130    -2.1110 ca         1 SAW      -0.152000
     20 C20         16.2000   -10.0030    -1.1770 ca         1 SAW      -0.012000
     21 C22         15.2580   -12.1100     1.9520 c3         1 SAW       0.178600
     22 C23         17.0340   -13.2200     0.7370 c3         1 SAW       0.178600
     23 C24          2.0320    -3.7290    -0.7090 c          1 SAW       0.581100
     24 N25          3.3580    -3.9420    -0.8330 ns         1 SAW      -0.206900
     25 C26          3.8460    -5.1390    -1.5230 c3         1 SAW       0.050000
     26 C27          5.3760    -5.1380    -1.5240 c3         1 SAW      -0.042400
     27 C28          5.8860    -6.3870    -2.2450 c3         1 SAW      -0.022400
     28 C29          7.4160    -6.3870    -2.2450 c3         1 SAW      -0.028400
     29 C30          7.9260    -7.6370    -2.9670 c3         1 SAW      -0.027400
     30 C31          9.4560    -7.6370    -2.9670 c3         1 SAW      -0.024400
     31 C32          9.9660    -8.8860    -3.6880 c3         1 SAW      -0.040400
     32 C33         11.4960    -8.8860    -3.6880 c3         1 SAW       0.225800
     33 N34         11.9840   -10.0820    -4.3790 n7         1 SAW      -0.589100
     34 S36         13.5580   -10.1600    -4.8870 sy         1 SAW       1.048200
     35 O37         13.7320   -11.4500    -5.4570 o          1 SAW      -0.589300
     36 O38          1.2440    -4.5280    -1.1700 o          1 SAW      -0.640100
     37 O39         -1.9390    -1.2490     0.7230 oh         1 SAW      -0.581800
     38 H1          -0.3610     0.8850     0.5100 hc         1 SAW       0.023200
     39 H1A         -0.3610    -0.0010    -1.0210 hc         1 SAW       0.023200
     40 H2           1.8910     0.8840    -0.5110 hc         1 SAW       0.026700
     41 H3           1.6800     0.8850     1.9530 hc         1 SAW       0.016200
     42 H3A          3.1240    -0.0000     1.4420 hc         1 SAW       0.016200
     43 H4           1.6790    -1.2490    -1.7420 hc         1 SAW       0.019200
     44 H4A          3.1230    -1.2490    -0.7210 hc         1 SAW       0.019200
     45 H6          -0.3610    -2.1320     2.6760 hc         1 SAW       0.023200
     46 H6A         -0.3610    -0.3630     2.6740 hc         1 SAW       0.023200
     47 H7          -0.3610    -3.3840     0.5110 hc         1 SAW       0.041700
     48 H7A         -0.3610    -2.4990    -1.0210 hc         1 SAW       0.041700
     49 H8           1.8920    -1.2480     3.1860 hc         1 SAW       0.026700
     50 H10          1.6800    -3.3820     1.9550 hc         1 SAW       0.019200
     51 H10A         3.1240    -2.4970     1.4430 hc         1 SAW       0.019200
     52 H11         14.3630   -14.0000     0.1050 ha         1 SAW       0.111000
     53 H12         12.9390   -14.0800    -1.8990 ha         1 SAW       0.103000
     54 H13         13.0130   -12.2980    -3.5590 ha         1 SAW       0.133000
     55 H18         15.4680    -8.2680    -3.9720 ha         1 SAW       0.126000
     56 H19         16.9000    -8.1710    -1.9730 ha         1 SAW       0.109000
     57 H20         16.8360    -9.9480    -0.3020 ha         1 SAW       0.122000
     58 H22         14.3980   -11.4660     1.8120 h1         1 SAW       0.005533
     59 H22A        15.8300   -11.7690     2.8060 h1         1 SAW       0.005533
     60 H22B        14.9230   -13.1260     2.1240 h1         1 SAW       0.005533
     61 H23         17.4360   -13.3540    -0.2600 h1         1 SAW       0.005533
     62 H23A        16.5950   -14.1500     1.0770 h1         1 SAW       0.005533
     63 H23B        17.8300   -12.9280     1.4110 h1         1 SAW       0.005533
     64 HN25         4.0080    -3.2660    -0.4820 hn         1 SAW       0.178500
     65 H26          3.4850    -5.1400    -2.5440 h1         1 SAW       0.027200
     66 H26A         3.4860    -6.0230    -1.0120 h1         1 SAW       0.027200
     67 H27          5.7360    -4.2540    -2.0350 hc         1 SAW       0.016200
     68 H27A         5.7370    -5.1380    -0.5030 hc         1 SAW       0.016200
     69 H28          5.5250    -6.3880    -3.2660 hc         1 SAW       0.019200
     70 H28A         5.5250    -7.2720    -1.7340 hc         1 SAW       0.019200
     71 H29          7.7770    -5.5030    -2.7550 hc         1 SAW       0.014700
     72 H29A         7.7770    -6.3880    -1.2240 hc         1 SAW       0.014700
     73 H30          7.5650    -7.6360    -3.9880 hc         1 SAW       0.016700
     74 H30A         7.5650    -8.5210    -2.4560 hc         1 SAW       0.016700
     75 H31          9.8170    -7.6370    -1.9450 hc         1 SAW       0.016700
     76 H31A         9.8170    -6.7520    -3.4770 hc         1 SAW       0.016700
     77 H32          9.6050    -9.7700    -3.1780 hc         1 SAW       0.019200
     78 H32A         9.6050    -8.8850    -4.7100 hc         1 SAW       0.019200
     79 H33         11.8570    -8.0010    -4.1990 h1         1 SAW       0.016200
     80 H33A        11.8570    -8.8860    -2.6670 h1         1 SAW       0.016200
     81 HN34        11.3560   -10.8340    -4.5800 hn         1 SAW       0.350800
     82 HO39        -2.2530    -0.4750     1.1600 ho         1 SAW       0.390000
     83 N21         16.0760   -12.1060     0.7320 nh         1 SAW      -0.410000
     84 O35         13.8120    -8.9560    -5.5970 o          1 SAW      -0.589300
@<TRIPOS>BOND
     1     1     2 1   
     2     1     5 1   
     3     1    38 1   
     4     1    39 1   
     5     2     3 1   
     6     2     4 1   
     7     2    40 1   
     8     3     8 1   
     9     3    41 1   
    10     3    42 1   
    11     4     9 1   
    12     4    43 1   
    13     4    44 1   
    14     5     6 1   
    15     5     7 1   
    16     5    37 1   
    17     6     8 1   
    18     6    45 1   
    19     6    46 1   
    20     7     9 1   
    21     7    47 1   
    22     7    48 1   
    23     8    10 1   
    24     8    49 1   
    25     9    10 1   
    26     9    23 1   
    27    10    50 1   
    28    10    51 1   
    29    11    12 ar  
    30    11    14 ar  
    31    11    52 1   
    32    12    13 ar  
    33    12    53 1   
    34    13    16 ar  
    35    13    54 1   
    36    14    15 ar  
    37    14    83 1   
    38    15    16 ar  
    39    15    20 ar  
    40    16    17 ar  
    41    17    18 ar  
    42    17    34 1   
    43    18    19 ar  
    44    18    55 1   
    45    19    20 ar  
    46    19    56 1   
    47    20    57 1   
    48    21    58 1   
    49    21    59 1   
    50    21    60 1   
    51    21    83 1   
    52    22    61 1   
    53    22    62 1   
    54    22    63 1   
    55    22    83 1   
    56    23    24 1   
    57    23    36 2   
    58    24    25 1   
    59    24    64 1   
    60    25    26 1   
    61    25    65 1   
    62    25    66 1   
    63    26    27 1   
    64    26    67 1   
    65    26    68 1   
    66    27    28 1   
    67    27    69 1   
    68    27    70 1   
    69    28    29 1   
    70    28    71 1   
    71    28    72 1   
    72    29    30 1   
    73    29    73 1   
    74    29    74 1   
    75    30    31 1   
    76    30    75 1   
    77    30    76 1   
    78    31    32 1   
    79    31    77 1   
    80    31    78 1   
    81    32    33 1   
    82    32    79 1   
    83    32    80 1   
    84    33    34 1   
    85    33    81 1   
    86    34    35 2   
    87    34    84 2   
    88    37    82 1   
@<TRIPOS>SUBSTRUCTURE
     1 SAW         1 TEMP              0 ****  ****    0 ROOT
