@<TRIPOS>MOLECULE
molecule
   84    88     1     0     0
SMALL
bcc


@<TRIPOS>ATOM
      1 C1           0.0000     0.0000     0.0000 c3         1 SAW      -0.099900
      2 C2           1.5300     0.0000     0.0000 c3         1 SAW      -0.062200
      3 C3           2.0400     0.0000     1.4420 c3         1 SAW      -0.073400
      4 C4           2.0400    -1.2490    -0.7210 c3         1 SAW      -0.063400
      5 C5          -0.5090    -1.2500     0.7230 c3         1 SAW       0.155800
      6 C6           0.0000    -1.2480     2.1640 c3         1 SAW      -0.099900
      7 C7           0.0000    -2.4990     0.0010 c3         1 SAW      -0.035400
      8 C8           1.5310    -1.2480     2.1640 c3         1 SAW      -0.062200
      9 C9           1.5300    -2.4990     0.0010 c3         1 SAW      -0.130000
     10 C10          2.0410    -2.4980     1.4430 c3         1 SAW      -0.063400
     11 C11         14.4140   -13.1960    -0.6190 ca         1 SAW      -0.173000
     12 C12         13.6080   -13.2410    -1.7530 ca         1 SAW      -0.092000
     13 C13         13.6480   -12.2470    -2.6830 ca         1 SAW      -0.144000
     14 C14         15.2750   -12.1420    -0.4070 ca         1 SAW       0.109600
     15 C15         15.3370   -11.0960    -1.3540 ca         1 SAW      -0.045000
     16 C16         14.5120   -11.1530    -2.5040 ca         1 SAW       0.049000
     17 C17         14.5730   -10.1120    -3.4480 ca         1 SAW      -0.315500
     18 C18         15.4220    -9.0680    -3.2430 ca         1 SAW       0.003000
     19 C19         16.2330    -9.0130    -2.1110 ca         1 SAW      -0.174000
     20 C20         16.2000   -10.0030    -1.1770 ca         1 SAW      -0.033000
     21 C22         15.2580   -12.1100     1.9520 c3         1 SAW       0.155600
     22 C23         17.0340   -13.2200     0.7370 c3         1 SAW       0.155600
     23 C24          2.0320    -3.7290    -0.7090 c          1 SAW       0.666100
     24 N25          3.3580    -3.9420    -0.8330 ns         1 SAW      -0.588900
     25 C26          3.8460    -5.1390    -1.5230 c3         1 SAW       0.111000
     26 C27          5.3760    -5.1380    -1.5240 c3         1 SAW      -0.101400
     27 C28          5.8860    -6.3870    -2.2450 c3         1 SAW      -0.078400
     28 C29          7.4160    -6.3870    -2.2450 c3         1 SAW      -0.081400
     29 C30          7.9260    -7.6370    -2.9670 c3         1 SAW      -0.080400
     30 C31          9.4560    -7.6370    -2.9670 c3         1 SAW      -0.081400
     31 C32          9.9660    -8.8860    -3.6880 c3         1 SAW      -0.090400
     32 C33         11.4960    -8.8860    -3.6880 c3         1 SAW       0.232800
     33 N34         11.9840   -10.0820    -4.3790 n7         1 SAW      -0.918100
     34 S36         13.5580   -10.1600    -4.8870 sy         1 SAW       1.430200
     35 O37         13.7320   -11.4500    -5.4570 o          1 SAW      -0.639300
     36 O38          1.2440    -4.5280    -1.1700 o          1 SAW      -0.603100
     37 O39         -1.9390    -1.2490     0.7230 oh         1 SAW      -0.597800
     38 H1          -0.3610     0.8850     0.5100 hc         1 SAW       0.049200
     39 H1A         -0.3610    -0.0010    -1.0210 hc         1 SAW       0.049200
     40 H2           1.8910     0.8840    -0.5110 hc         1 SAW       0.053700
     41 H3           1.6800     0.8850     1.9530 hc         1 SAW       0.042700
     42 H3A          3.1240    -0.0000     1.4420 hc         1 SAW       0.042700
     43 H4           1.6790    -1.2490    -1.7420 hc         1 SAW       0.046450
     44 H4A          3.1230    -1.2490    -0.7210 hc         1 SAW       0.046450
     45 H6          -0.3610    -2.1320     2.6760 hc         1 SAW       0.049200
     46 H6A         -0.3610    -0.3630     2.6740 hc         1 SAW       0.049200
     47 H7          -0.3610    -3.3840     0.5110 hc         1 SAW       0.070700
     48 H7A         -0.3610    -2.4990    -1.0210 hc         1 SAW       0.070700
     49 H8           1.8920    -1.2480     3.1860 hc         1 SAW       0.053700
     50 H10          1.6800    -3.3820     1.9550 hc         1 SAW       0.046450
     51 H10A         3.1240    -2.4970     1.4430 hc         1 SAW       0.046450
     52 H11         14.3630   -14.0000     0.1050 ha         1 SAW       0.133000
     53 H12         12.9390   -14.0800    -1.8990 ha         1 SAW       0.133000
     54 H13         13.0130   -12.2980    -3.5590 ha         1 SAW       0.145000
     55 H18         15.4680    -8.2680    -3.9720 ha         1 SAW       0.154000
     56 H19         16.9000    -8.1710    -1.9730 ha         1 SAW       0.136000
     57 H20         16.8360    -9.9480    -0.3020 ha         1 SAW       0.156000
     58 H22         14.3980   -11.4660     1.8120 h1         1 SAW       0.038367
     59 H22A        15.8300   -11.7690     2.8060 h1         1 SAW       0.038367
     60 H22B        14.9230   -13.1260     2.1240 h1         1 SAW       0.038367
     61 H23         17.4360   -13.3540    -0.2600 h1         1 SAW       0.038367
     62 H23A        16.5950   -14.1500     1.0770 h1         1 SAW       0.038367
     63 H23B        17.8300   -12.9280     1.4110 h1         1 SAW       0.038367
     64 HN25         4.0080    -3.2660    -0.4820 hn         1 SAW       0.312500
     65 H26          3.4850    -5.1400    -2.5440 h1         1 SAW       0.053700
     66 H26A         3.4860    -6.0230    -1.0120 h1         1 SAW       0.053700
     67 H27          5.7360    -4.2540    -2.0350 hc         1 SAW       0.044700
     68 H27A         5.7370    -5.1380    -0.5030 hc         1 SAW       0.044700
     69 H28          5.5250    -6.3880    -3.2660 hc         1 SAW       0.046700
     70 H28A         5.5250    -7.2720    -1.7340 hc         1 SAW       0.046700
     71 H29          7.7770    -5.5030    -2.7550 hc         1 SAW       0.042200
     72 H29A         7.7770    -6.3880    -1.2240 hc         1 SAW       0.042200
     73 H30          7.5650    -7.6360    -3.9880 hc         1 SAW       0.043700
     74 H30A         7.5650    -8.5210    -2.4560 hc         1 SAW       0.043700
     75 H31          9.8170    -7.6370    -1.9450 hc         1 SAW       0.044700
     76 H31A         9.8170    -6.7520    -3.4770 hc         1 SAW       0.044700
     77 H32          9.6050    -9.7700    -3.1780 hc         1 SAW       0.049200
     78 H32A         9.6050    -8.8850    -4.7100 hc         1 SAW       0.049200
     79 H33         11.8570    -8.0010    -4.1990 h1         1 SAW       0.048700
     80 H33A        11.8570    -8.8860    -2.6670 h1         1 SAW       0.048700
     81 HN34        11.3560   -10.8340    -4.5800 hn         1 SAW       0.453800
     82 HO39        -2.2530    -0.4750     1.1600 ho         1 SAW       0.401000
     83 N21         16.0760   -12.1060     0.7320 nh         1 SAW      -0.624000
     84 O35         13.8120    -8.9560    -5.5970 o          1 SAW      -0.639300
@<TRIPOS>BOND
     1     1     2 1
     2     1     5 1
     3     2     3 1
     4     2     4 1
     5     3     8 1
     6     4     9 1
     7     5     6 1
     8     5     7 1
     9     5    37 1
    10     6     8 1
    11     7     9 1
    12     8    10 1
    13     9    10 1
    14     9    23 1
    15    11    12 ar
    16    11    14 ar
    17    12    13 ar
    18    13    16 ar
    19    14    15 ar
    20    14    83 1
    21    15    16 ar
    22    15    20 ar
    23    16    17 ar
    24    17    18 ar
    25    17    34 1
    26    18    19 ar
    27    19    20 ar
    28    83    21 1
    29    83    22 1
    30    23    24 1
    31    23    36 2
    32    24    25 1
    33    25    26 1
    34    26    27 1
    35    27    28 1
    36    28    29 1
    37    29    30 1
    38    30    31 1
    39    31    32 1
    40    32    33 1
    41    33    34 1
    42    84    34 2
    43    34    35 2
    44     1    38 1
    45     1    39 1
    46     2    40 1
    47     3    41 1
    48     3    42 1
    49     4    43 1
    50     4    44 1
    51     6    45 1
    52     6    46 1
    53     7    47 1
    54     7    48 1
    55     8    49 1
    56    10    50 1
    57    10    51 1
    58    11    52 1
    59    12    53 1
    60    13    54 1
    61    18    55 1
    62    19    56 1
    63    20    57 1
    64    21    58 1
    65    21    59 1
    66    21    60 1
    67    22    61 1
    68    22    62 1
    69    22    63 1
    70    24    64 1
    71    25    65 1
    72    25    66 1
    73    26    67 1
    74    26    68 1
    75    27    69 1
    76    27    70 1
    77    28    71 1
    78    28    72 1
    79    29    73 1
    80    29    74 1
    81    30    75 1
    82    30    76 1
    83    31    77 1
    84    31    78 1
    85    32    79 1
    86    32    80 1
    87    33    81 1
    88    37    82 1
@<TRIPOS>SUBSTRUCTURE
     1 SAW         1 TEMP              0 ****  ****    0 ROOT
