@<TRIPOS>MOLECULE
molecule
   52    52     1     0     0
SMALL
bcc


@<TRIPOS>ATOM
      1 C1           0.0000     0.0000     0.0000 ca         1 SAX      -0.104600
      2 O1           2.0840     0.0020    -1.1740 oh         1 SAX      -0.493100
      3 C2           1.4030     0.0000     0.0000 ca         1 SAX       0.147100
      4 O2          -2.0460     0.0040     1.2370 os         1 SAX      -0.291900
      5 C3           2.0910     0.0000     1.2010 ca         1 SAX      -0.232000
      6 O3          -1.0470    -1.0530    -1.7950 o          1 SAX      -0.829800
      7 C4           1.4010    -0.0000     2.3990 ca         1 SAX      -0.111000
      8 O4          -1.0820     1.1670    -1.8520 o          1 SAX      -0.829800
      9 C5           0.0190    -0.0020     2.4120 ca         1 SAX      -0.255000
     10 C6          -0.6900     0.0040     1.2220 ca         1 SAX       0.163100
     11 C7          -2.6810    -0.0030     2.5180 c3         1 SAX       0.140400
     12 C8          -4.2000    -0.0030     2.3340 c3         1 SAX      -0.081400
     13 C9          -4.8780    -0.0100     3.7050 c3         1 SAX      -0.081400
     14 C10         -6.3980    -0.0100     3.5220 c3         1 SAX      -0.080400
     15 C11         -7.0780    -0.0170     4.8930 c3         1 SAX      -0.082400
     16 C12         -8.5960    -0.0170     4.7100 c3         1 SAX      -0.082400
     17 C13         -9.2750    -0.0240     6.0810 c3         1 SAX      -0.082400
     18 C14        -10.7950    -0.0240     5.8970 c3         1 SAX      -0.082400
     19 C15        -11.4730    -0.0320     7.2680 c3         1 SAX      -0.082400
     20 C16        -12.9920    -0.0310     7.0850 c3         1 SAX      -0.081400
     21 C17        -13.6710    -0.0390     8.4560 c3         1 SAX      -0.084400
     22 C18        -15.1900    -0.0380     8.2730 c3         1 SAX      -0.092100
     23 C19         -0.7420    -0.0000    -1.2700 c          1 SAX       0.902200
     24 HO1          2.6240    -0.7690    -1.2260 ho         1 SAX       0.400000
     25 H3           3.1750     0.0010     1.2030 ha         1 SAX       0.110000
     26 H4           1.9470    -0.0020     3.3340 ha         1 SAX       0.103000
     27 H5          -0.5120     0.0000     3.3560 ha         1 SAX       0.112000
     28 H7          -2.3840     0.8790     3.0720 h1         1 SAX       0.022200
     29 H7A         -2.3830    -0.8900     3.0640 h1         1 SAX       0.022200
     30 H8          -4.4980     0.8840     1.7880 hc         1 SAX       0.060700
     31 H8A         -4.4970    -0.8850     1.7800 hc         1 SAX       0.060700
     32 H9          -4.5810     0.8720     4.2590 hc         1 SAX       0.036200
     33 H9A         -4.5800    -0.8970     4.2510 hc         1 SAX       0.036200
     34 H10         -6.6960     0.8770     2.9760 hc         1 SAX       0.044200
     35 H10A        -6.6950    -0.8920     2.9680 hc         1 SAX       0.044200
     36 H11         -6.7810     0.8650     5.4470 hc         1 SAX       0.038200
     37 H11A        -6.7800    -0.9040     5.4390 hc         1 SAX       0.038200
     38 H12         -8.8940     0.8700     4.1640 hc         1 SAX       0.041700
     39 H12A        -8.8930    -0.8990     4.1550 hc         1 SAX       0.041700
     40 H13         -8.9780    -0.9110     6.6270 hc         1 SAX       0.039700
     41 H13A        -8.9790     0.8580     6.6360 hc         1 SAX       0.039700
     42 H14        -11.0930     0.8630     5.3520 hc         1 SAX       0.041200
     43 H14A       -11.0910    -0.9060     5.3420 hc         1 SAX       0.041200
     44 H15        -11.1750    -0.9200     7.8130 hc         1 SAX       0.039700
     45 H15A       -11.1750     0.8490     7.8230 hc         1 SAX       0.039700
     46 H16        -13.2890    -0.9120     6.5300 hc         1 SAX       0.040700
     47 H16A       -13.2890     0.8560     6.5400 hc         1 SAX       0.040700
     48 H17        -13.3740     0.8420     9.0110 hc         1 SAX       0.038700
     49 H17A       -13.3740    -0.9270     9.0010 hc         1 SAX       0.038700
     50 H18        -15.6710    -0.0440     9.2430 hc         1 SAX       0.031033
     51 H18A       -15.4870    -0.9200     7.7170 hc         1 SAX       0.031033
     52 H18B       -15.4870     0.8490     7.7270 hc         1 SAX       0.031033
@<TRIPOS>BOND
     1    10     1 ar
     2     1     3 ar
     3     1    23 1
     4     3     2 1
     5     2    24 1
     6     5     3 ar
     7    11     4 1
     8     4    10 1
     9     7     5 ar
    10     5    25 1
    11     6    23 1
    12     9     7 ar
    13     7    26 1
    14    23     8 1
    15     9    10 ar
    16     9    27 1
    17    12    11 1
    18    11    28 1
    19    11    29 1
    20    13    12 1
    21    12    30 1
    22    12    31 1
    23    14    13 1
    24    13    32 1
    25    13    33 1
    26    15    14 1
    27    14    34 1
    28    14    35 1
    29    16    15 1
    30    15    36 1
    31    15    37 1
    32    17    16 1
    33    16    38 1
    34    16    39 1
    35    18    17 1
    36    17    40 1
    37    17    41 1
    38    19    18 1
    39    18    42 1
    40    18    43 1
    41    20    19 1
    42    19    44 1
    43    19    45 1
    44    21    20 1
    45    20    46 1
    46    20    47 1
    47    22    21 1
    48    21    48 1
    49    21    49 1
    50    22    50 1
    51    22    51 1
    52    22    52 1
@<TRIPOS>SUBSTRUCTURE
     1 SAX         1 TEMP              0 ****  ****    0 ROOT
