@<TRIPOS>MOLECULE
SAX
   52    52     1     0     0
SMALL
bcc


@<TRIPOS>ATOM
      1 C1         -0.5360    0.3540    0.5590 ca        1 SAX     -0.211600
      2 O1          0.7520    1.6980   -1.0350 oh        1 SAX     -0.547100
      3 C2          0.6830    0.8030    0.0020 ca        1 SAX      0.175100
      4 O2         -1.5770   -1.2300    2.1070 os        1 SAX     -0.355900
      5 C3          1.9250    0.3650    0.4950 ca        1 SAX     -0.211000
      6 O3         -1.9260    1.0670   -1.2400 o         1 SAX     -0.831300
      7 C4          1.9620   -0.5570    1.5360 ca        1 SAX     -0.113000
      8 O4         -2.7670    1.2160    0.8140 o         1 SAX     -0.831300
      9 C5          0.7820   -1.0440    2.0850 ca        1 SAX     -0.212000
     10 C6         -0.4560   -0.5910    1.5900 ca        1 SAX      0.152100
     11 C7         -2.3200   -0.4430    3.0520 c3        1 SAX      0.144400
     12 C8         -3.7790   -0.8300    2.8870 c3        1 SAX     -0.093400
     13 C9         -4.6060   -0.2770    4.0260 c3        1 SAX     -0.071400
     14 C10        -6.0700   -0.6230    3.8530 c3        1 SAX     -0.078400
     15 C11        -6.9050   -0.0740    4.9900 c3        1 SAX     -0.078400
     16 C12        -8.3680   -0.4180    4.8150 c3        1 SAX     -0.079400
     17 C13        -9.2040    0.1310    5.9520 c3        1 SAX     -0.078400
     18 C14       -10.6670   -0.2140    5.7760 c3        1 SAX     -0.079400
     19 C15       -11.5020    0.3330    6.9140 c3        1 SAX     -0.078400
     20 C16       -12.9660   -0.0100    6.7380 c3        1 SAX     -0.079400
     21 C17       -13.8020    0.5360    7.8750 c3        1 SAX     -0.080400
     22 C18       -15.2600    0.1970    7.7040 c3        1 SAX     -0.092100
     23 C19        -1.8440    0.9020    0.0160 c         1 SAX      0.922200
     24 HO1        -0.1440    1.8150   -1.4120 ho        1 SAX      0.475000
     25 H3          2.8480    0.7510    0.0450 ha        1 SAX      0.125000
     26 H4          2.9300   -0.9060    1.9210 ha        1 SAX      0.105000
     27 H5          0.7970   -1.7870    2.8920 ha        1 SAX      0.121000
     28 H7         -1.9370   -0.7120    4.0740 h1        1 SAX      0.041700
     29 H7A        -2.1830    0.6530    2.8570 h1        1 SAX      0.041700
     30 H8         -4.1330   -0.4120    1.9050 hc        1 SAX      0.065700
     31 H8A        -3.8740   -1.9450    2.8440 hc        1 SAX      0.065700
     32 H9         -4.2370   -0.6870    5.0030 hc        1 SAX      0.032700
     33 H9A        -4.4860    0.8380    4.0650 hc        1 SAX      0.032700
     34 H10        -6.4380   -0.2060    2.8780 hc        1 SAX      0.041200
     35 H10A       -6.1900   -1.7380    3.8030 hc        1 SAX      0.041200
     36 H11        -6.7840    1.0410    5.0380 hc        1 SAX      0.035200
     37 H11A       -6.5350   -0.4880    5.9640 hc        1 SAX      0.035200
     38 H12        -8.7380   -0.0000    3.8410 hc        1 SAX      0.038700
     39 H12A       -8.4890   -1.5320    4.7630 hc        1 SAX      0.038700
     40 H13        -8.8340   -0.2860    6.9260 hc        1 SAX      0.036700
     41 H13A       -9.0830    1.2450    6.0030 hc        1 SAX      0.036700
     42 H14       -11.0370    0.2050    4.8030 hc        1 SAX      0.039200
     43 H14A      -10.7870   -1.3280    5.7230 hc        1 SAX      0.039200
     44 H15       -11.3810    1.4480    6.9670 hc        1 SAX      0.037700
     45 H15A      -11.1320   -0.0850    7.8870 hc        1 SAX      0.037700
     46 H16       -13.3350    0.4100    5.7650 hc        1 SAX      0.038700
     47 H16A      -13.0870   -1.1240    6.6840 hc        1 SAX      0.038700
     48 H17       -13.6780    1.6500    7.9290 hc        1 SAX      0.037200
     49 H17A      -13.4300    0.1160    8.8470 hc        1 SAX      0.037200
     50 H18       -15.6550    0.6280    6.7520 hc        1 SAX      0.030033
     51 H18A      -15.8580    0.6080    8.5520 hc        1 SAX      0.030033
     52 H18B      -15.4060   -0.9100    7.6730 hc        1 SAX      0.030033
@<TRIPOS>BOND
     1    1    3 ar  
     2    1   10 ar  
     3    1   23 1   
     4    2    3 1   
     5    2   24 1   
     6    3    5 ar  
     7    4   10 1   
     8    4   11 1   
     9    5    7 ar  
    10    5   25 1   
    11    6   23 1   
    12    7    9 ar  
    13    7   26 1   
    14    8   23 1   
    15    9   10 ar  
    16    9   27 1   
    17   11   12 1   
    18   11   28 1   
    19   11   29 1   
    20   12   13 1   
    21   12   30 1   
    22   12   31 1   
    23   13   14 1   
    24   13   32 1   
    25   13   33 1   
    26   14   15 1   
    27   14   34 1   
    28   14   35 1   
    29   15   16 1   
    30   15   36 1   
    31   15   37 1   
    32   16   17 1   
    33   16   38 1   
    34   16   39 1   
    35   17   18 1   
    36   17   40 1   
    37   17   41 1   
    38   18   19 1   
    39   18   42 1   
    40   18   43 1   
    41   19   20 1   
    42   19   44 1   
    43   19   45 1   
    44   20   21 1   
    45   20   46 1   
    46   20   47 1   
    47   21   22 1   
    48   21   48 1   
    49   21   49 1   
    50   22   50 1   
    51   22   51 1   
    52   22   52 1   
@<TRIPOS>SUBSTRUCTURE
     1 SAX         1 TEMP              0 ****  ****    0 ROOT
