@<TRIPOS>MOLECULE
molecule
   41    41     1     0     0
SMALL
bcc


@<TRIPOS>ATOM
      1 C01          0.0000     0.0000     0.0000 c3         1 SAZ       0.100500
      2 C02          1.5300     0.0000     0.0000 c3         1 SAZ      -0.051200
      3 C03         -0.4900     1.0980     0.9510 c3         1 SAZ      -0.102400
      4 C05          2.0460     0.0000     1.4090 c2         1 SAZ      -0.196200
      5 C07         -0.1140     0.7030     2.3810 c3         1 SAZ      -0.036200
      6 C08         -3.9730     0.8180    -2.7090 c2         1 SAZ      -0.460200
      7 C09         -2.4690     0.7240    -2.7320 c3         1 SAZ      -0.122200
      8 C13         -4.5680     1.8960    -3.1600 c2         1 SAZ       0.094600
      9 C16         -3.7480     3.0730    -3.6200 c3         1 SAZ      -0.106400
     10 C17         -6.0730     1.9570    -3.2180 c3         1 SAZ      -0.106400
     11 C25          1.3330     0.3080     2.4450 c2         1 SAZ      -0.097400
     12 C26          1.9950     0.2670     3.7970 c3         1 SAZ      -0.060900
     13 N35         -0.4940     0.2660    -1.3580 nx         1 SAZ      -0.652400
     14 C36         -0.0860    -0.8260    -2.2510 c3         1 SAZ       0.083100
     15 H01         -0.3620    -0.9620     0.3420 hx         1 SAZ       0.116700
     16 H021         1.8870     0.8850    -0.5120 hc         1 SAZ       0.064700
     17 H022         1.8870    -0.8850    -0.5120 hc         1 SAZ       0.064700
     18 H031        -1.5660     1.1940     0.8720 hc         1 SAZ       0.062700
     19 H032        -0.0140     2.0380     0.6970 hc         1 SAZ       0.062700
     20 H05          3.0820    -0.2750     1.5700 ha         1 SAZ       0.157000
     21 H071        -0.2840     1.5450     3.0410 hc         1 SAZ       0.078200
     22 H072        -0.7270    -0.1340     2.6930 hc         1 SAZ       0.078200
     23 H08         -3.3470     1.2700    -1.9490 ha         1 SAZ       0.265000
     24 H091        -2.1660    -0.0400    -3.4380 hc         1 SAZ       0.064700
     25 H092        -2.0510     1.6780    -3.0310 hc         1 SAZ       0.064700
     26 H101        -2.2630     1.1230    -0.6300 hx         1 SAZ       0.112700
     27 H102        -2.3780    -0.5950    -1.0370 hx         1 SAZ       0.112700
     28 H161        -4.4050     3.8400    -4.0110 hc         1 SAZ       0.068033
     29 H162        -3.1860     3.4710    -2.7830 hc         1 SAZ       0.068033
     30 H163        -3.0620     2.7540    -4.3960 hc         1 SAZ       0.068033
     31 H171        -6.4900     1.1550    -2.6210 hc         1 SAZ       0.068033
     32 H172        -6.3990     1.8500    -4.2450 hc         1 SAZ       0.068033
     33 H173        -6.4110     2.9100    -2.8290 hc         1 SAZ       0.068033
     34 H261         1.2360     0.2060     4.5690 hc         1 SAZ       0.058367
     35 H262         2.6410    -0.6010     3.8570 hc         1 SAZ       0.058367
     36 H263         2.5830     1.1650     3.9390 hc         1 SAZ       0.058367
     37 H35         -0.1100     1.1290    -1.6890 hn         1 SAZ       0.443800
     38 H361        -0.9650    -1.3580    -2.5970 hx         1 SAZ       0.102700
     39 H362         0.4460    -0.4180    -3.1020 hx         1 SAZ       0.102700
     40 H363         0.5610    -1.5090    -1.7140 hx         1 SAZ       0.102700
     41 C10         -1.9600     0.3590    -1.3360 c3         1 SAZ       0.070800
@<TRIPOS>BOND
     1     1     2 1
     2     1     3 1
     3     1    13 1
     4     1    15 1
     5     2     4 1
     6     2    16 1
     7     2    17 1
     8     3     5 1
     9     3    18 1
    10     3    19 1
    11     4    11 2
    12     4    20 1
    13     5    11 1
    14     5    21 1
    15     5    22 1
    16     6     7 1
    17     6     8 2
    18     6    23 1
    19     7    41 1
    20     7    24 1
    21     7    25 1
    22    41    13 1
    23    41    26 1
    24    41    27 1
    25     8     9 1
    26     8    10 1
    27     9    28 1
    28     9    29 1
    29     9    30 1
    30    10    31 1
    31    10    32 1
    32    10    33 1
    33    11    12 1
    34    12    34 1
    35    12    35 1
    36    12    36 1
    37    13    14 1
    38    13    37 1
    39    14    38 1
    40    14    39 1
    41    14    40 1
@<TRIPOS>SUBSTRUCTURE
     1 SAZ         1 TEMP              0 ****  ****    0 ROOT
