@<TRIPOS>MOLECULE
SAZ
   41    41     1     0     0
SMALL
bcc


@<TRIPOS>ATOM
      1 C01          0.0000     0.0000     0.0000 c3         1 SAZ      -0.059500
      2 C02          1.5300     0.0000     0.0000 c3         1 SAZ       0.033800
      3 C03         -0.4900     1.0980     0.9510 c3         1 SAZ      -0.042400
      4 C05          2.0460     0.0000     1.4090 c2         1 SAZ      -0.188200
      5 C07         -0.1140     0.7030     2.3810 c3         1 SAZ       0.041800
      6 C08         -3.9730     0.8180    -2.7090 c2         1 SAZ      -0.239200
      7 C09         -2.4690     0.7240    -2.7320 c3         1 SAZ       0.007800
      8 C13         -4.5680     1.8960    -3.1600 c2         1 SAZ      -0.064400
      9 C16         -3.7480     3.0730    -3.6200 c3         1 SAZ       0.046100
     10 C17         -6.0730     1.9570    -3.2180 c3         1 SAZ       0.046100
     11 C25          1.3330     0.3080     2.4450 c2         1 SAZ      -0.106400
     12 C26          1.9950     0.2670     3.7970 c3         1 SAZ       0.051100
     13 N35         -0.4940     0.2660    -1.3580 nx         1 SAZ       0.035600
     14 C36         -0.0860    -0.8260    -2.2510 c3         1 SAZ      -0.007900
     15 H01         -0.3620    -0.9620     0.3420 hx         1 SAZ       0.094700
     16 H021         1.8870     0.8850    -0.5120 hc         1 SAZ       0.032700
     17 H022         1.8870    -0.8850    -0.5120 hc         1 SAZ       0.032700
     18 H031        -1.5660     1.1950     0.8720 hc         1 SAZ       0.038200
     19 H032        -0.0140     2.0380     0.6970 hc         1 SAZ       0.038200
     20 H05          3.0810    -0.2760     1.5700 ha         1 SAZ       0.133000
     21 H071        -0.7270    -0.1340     2.6930 hc         1 SAZ       0.042200
     22 H072        -0.2840     1.5450     3.0410 hc         1 SAZ       0.042200
     23 H08         -4.5630    -0.0280    -2.3790 ha         1 SAZ       0.127000
     24 H091        -2.0510     1.6780    -3.0300 hc         1 SAZ       0.036200
     25 H092        -2.1660    -0.0400    -3.4380 hc         1 SAZ       0.036200
     26 H101        -2.2630     1.1230    -0.6300 hx         1 SAZ       0.086700
     27 H102        -2.3780    -0.5950    -1.0370 hx         1 SAZ       0.086700
     28 H161        -4.4070     3.8570    -3.9720 hc         1 SAZ       0.018367
     29 H162        -3.0920     2.7630    -4.4250 hc         1 SAZ       0.018367
     30 H163        -3.1540     3.4450    -2.7930 hc         1 SAZ       0.018367
     31 H171        -6.4440     1.1430    -3.8290 hc         1 SAZ       0.018367
     32 H172        -6.4760     1.8700    -2.2160 hc         1 SAZ       0.018367
     33 H173        -6.3790     2.9020    -3.6500 hc         1 SAZ       0.018367
     34 H261         2.7200     1.0690     3.8690 hc         1 SAZ       0.020700
     35 H262         2.4960    -0.6850     3.9260 hc         1 SAZ       0.020700
     36 H263         1.2450     0.3870     4.5700 hc         1 SAZ       0.020700
     37 H35         -0.1100     1.1290    -1.6890 hn         1 SAZ       0.256800
     38 H361        -0.3190    -0.5610    -3.2760 hx         1 SAZ       0.076367
     39 H362         0.9800    -0.9930    -2.1540 hx         1 SAZ       0.076367
     40 H363        -0.6190    -1.7310    -1.9830 hx         1 SAZ       0.076367
     41 C10         -1.9600     0.3590    -1.3360 c3         1 SAZ      -0.041200
@<TRIPOS>BOND
     1     1     2 1   
     2     1     3 1   
     3     1    13 1   
     4     1    15 1   
     5     2     4 1   
     6     2    16 1   
     7     2    17 1   
     8     3     5 1   
     9     3    18 1   
    10     3    19 1   
    11     4    11 2   
    12     4    20 1   
    13     5    11 1   
    14     5    21 1   
    15     5    22 1   
    16     6     7 1   
    17     6     8 2   
    18     6    23 1   
    19     7    24 1   
    20     7    25 1   
    21     7    41 1   
    22     8     9 1   
    23     8    10 1   
    24     9    28 1   
    25     9    29 1   
    26     9    30 1   
    27    10    31 1   
    28    10    32 1   
    29    10    33 1   
    30    11    12 1   
    31    12    34 1   
    32    12    35 1   
    33    12    36 1   
    34    13    14 1   
    35    13    37 1   
    36    13    41 1   
    37    14    38 1   
    38    14    39 1   
    39    14    40 1   
    40    26    41 1   
    41    27    41 1   
@<TRIPOS>SUBSTRUCTURE
     1 SAZ         1 TEMP              0 ****  ****    0 ROOT
