@<TRIPOS>MOLECULE
molecule
   48    51     1     0     0
SMALL
bcc


@<TRIPOS>ATOM
      1 F8           0.0000     0.0000     0.0000 f          1 SB0      -0.146900
      2 C2           1.3520     0.0000     0.0000 ca         1 SB0       0.135900
      3 C1           2.0420     0.0000     1.2020 ca         1 SB0      -0.174000
      4 C6           3.4210     0.0010     1.2070 ca         1 SB0      -0.065000
      5 C5           4.1220    -0.0000     0.0010 ca         1 SB0      -0.118500
      6 C4           3.4220    -0.0010    -1.2060 ca         1 SB0      -0.065000
      7 C3           2.0420    -0.0050    -1.2000 ca         1 SB0      -0.174000
      8 C7           5.6030     0.0000     0.0020 cc         1 SB0       0.439800
      9 N9           6.3990     0.6230     0.8900 nc         1 SB0      -0.694000
     10 C10          7.6480     0.4070     0.5820 cd         1 SB0       0.421400
     11 N11          7.7160    -0.3660    -0.5210 na         1 SB0      -0.169900
     12 C19          8.9390    -0.8300    -1.1820 c3         1 SB0       0.034000
     13 C20          9.8350    -1.5340    -0.1610 c3         1 SB0      -0.093400
     14 C21         11.1110    -2.0180    -0.8510 c3         1 SB0      -0.090900
     15 C22         11.8560    -0.8200    -1.4430 c3         1 SB0       0.144100
     16 O25         13.0490    -1.2730    -2.0880 oh         1 SB0      -0.601800
     17 C23         10.9600    -0.1160    -2.4630 c3         1 SB0      -0.090900
     18 C24          9.6840     0.3680    -1.7740 c3         1 SB0      -0.093400
     19 C12          6.4230    -0.6430    -0.9080 cd         1 SB0      -0.308100
     20 C13          5.9990    -1.4600    -2.0600 ca         1 SB0       0.596800
     21 N14          4.8420    -2.1230    -2.0330 nb         1 SB0      -0.736000
     22 C15          4.4620    -2.8540    -3.0650 ca         1 SB0       0.917300
     23 O26          3.2800    -3.5150    -3.0070 os         1 SB0      -0.408100
     24 C27          2.9140    -4.2910    -4.1480 c3         1 SB0       0.140700
     25 N16          5.2040    -2.9580    -4.1570 nb         1 SB0      -0.817000
     26 C17          6.3650    -2.3280    -4.2560 ca         1 SB0       0.501200
     27 C18          6.8030    -1.5480    -3.2050 ca         1 SB0      -0.442600
     28 H1           1.4970     0.0000     2.1390 ha         1 SB0       0.142500
     29 H2           3.9600     0.0010     2.1470 ha         1 SB0       0.141500
     30 H3           3.9610    -0.0030    -2.1460 ha         1 SB0       0.141500
     31 H4           1.4980    -0.0060    -2.1370 ha         1 SB0       0.142500
     32 H5           8.5010     0.7910     1.1290 h5         1 SB0       0.066100
     33 H6           8.6860    -1.5230    -1.9760 h1         1 SB0       0.089700
     34 H7          10.0950    -0.8390     0.6290 hc         1 SB0       0.056950
     35 H8           9.3070    -2.3830     0.2560 hc         1 SB0       0.056950
     36 H9          11.7460    -2.5150    -0.1270 hc         1 SB0       0.058950
     37 H10         10.8510    -2.7090    -1.6450 hc         1 SB0       0.058950
     38 H11         12.1100    -0.1280    -0.6500 h1         1 SB0       0.032700
     39 H12         13.7980    -0.8690    -1.6820 ho         1 SB0       0.405000
     40 H13         10.7010    -0.8100    -3.2540 hc         1 SB0       0.058950
     41 H14         11.4880     0.7330    -2.8800 hc         1 SB0       0.058950
     42 H15          9.9440     1.0580    -0.9800 hc         1 SB0       0.056950
     43 H16          9.0500     0.8640    -2.4980 hc         1 SB0       0.056950
     44 H17          2.8820    -3.6540    -5.0240 h1         1 SB0       0.050700
     45 H18          1.9370    -4.7320    -3.9870 h1         1 SB0       0.050700
     46 H19          3.6440    -5.0770    -4.2990 h1         1 SB0       0.050700
     47 H20          6.9620    -2.4200    -5.1560 h4         1 SB0       0.031100
     48 H21          7.7490    -1.0230    -3.2610 ha         1 SB0       0.150000
@<TRIPOS>BOND
     1     1     2 1
     2     3     2 ar
     3     3     4 ar
     4     2     7 ar
     5     4     5 ar
     6     7     6 ar
     7     5     6 ar
     8     5     8 1
     9     8     9 1
    10     8    19 2
    11     9    10 2
    12    27    26 ar
    13    27    20 ar
    14    26    25 ar
    15    19    20 1
    16    19    11 1
    17    10    11 1
    18    20    21 ar
    19    11    12 1
    20    25    22 ar
    21    21    22 ar
    22    22    23 1
    23    18    12 1
    24    18    17 1
    25    12    13 1
    26    23    24 1
    27    13    14 1
    28    17    15 1
    29    15    14 1
    30    15    16 1
    31     3    28 1
    32     4    29 1
    33     6    30 1
    34     7    31 1
    35    10    32 1
    36    12    33 1
    37    13    34 1
    38    13    35 1
    39    14    36 1
    40    14    37 1
    41    15    38 1
    42    16    39 1
    43    17    40 1
    44    17    41 1
    45    18    42 1
    46    18    43 1
    47    24    44 1
    48    24    45 1
    49    24    46 1
    50    26    47 1
    51    27    48 1
@<TRIPOS>SUBSTRUCTURE
     1 SB0         1 TEMP              0 ****  ****    0 ROOT
