@<TRIPOS>MOLECULE
SB0
   48    51     1     0     0
SMALL
bcc


@<TRIPOS>ATOM
      1 F8         -0.1240    0.6900    0.2320 f         1 SB0     -0.142900
      2 C2          1.2260    0.6300    0.1420 ca        1 SB0      0.126900
      3 C1          2.0000    0.4390    1.3020 ca        1 SB0     -0.170000
      4 C6          3.3850    0.3770    1.2000 ca        1 SB0     -0.085500
      5 C5          4.0180    0.4970   -0.0480 ca        1 SB0     -0.118500
      6 C4          3.2380    0.6970   -1.1940 ca        1 SB0     -0.085500
      7 C3          1.8520    0.7610   -1.1110 ca        1 SB0     -0.170000
      8 C7          5.4680    0.4270   -0.1230 cc        1 SB0      0.386800
      9 N9          6.2980    1.0750    0.8050 nc        1 SB0     -0.661000
     10 C10         7.5620    0.7540    0.4630 cd        1 SB0      0.405400
     11 N11         7.6030   -0.0780   -0.6630 na        1 SB0     -0.181900
     12 C19         8.7790   -0.6790   -1.2530 c3        1 SB0      0.051000
     13 C20         9.3100   -1.8680   -0.4290 c3        1 SB0     -0.089900
     14 C21        10.4700   -2.5210   -1.1450 c3        1 SB0     -0.095400
     15 C22        11.5890   -1.5190   -1.4140 c3        1 SB0      0.138100
     16 O25        12.6140   -2.0990   -2.2100 oh        1 SB0     -0.597800
     17 C23        11.0680   -0.3160   -2.1940 c3        1 SB0     -0.095400
     18 C24         9.9140    0.3380   -1.4670 c3        1 SB0     -0.089900
     19 C12         6.2700   -0.2920   -1.0470 cd        1 SB0     -0.269100
     20 C13         5.8850   -1.1510   -2.1710 ca        1 SB0      0.545800
     21 N14         5.9590   -2.4950   -2.0030 nb        1 SB0     -0.681000
     22 C15         5.5590   -3.2400   -3.0900 ca        1 SB0      0.846300
     23 O26         5.6620   -4.5970   -2.8550 os        1 SB0     -0.413100
     24 C27         5.2140   -5.4720   -3.8930 c3        1 SB0      0.123700
     25 N16         5.1080   -2.7670   -4.3030 nb        1 SB0     -0.743000
     26 C17         5.0730   -1.4280   -4.4180 ca        1 SB0      0.459200
     27 C18         5.4580   -0.5590   -3.3810 ca        1 SB0     -0.388600
     28 H1          1.5030    0.3410    2.2770 ha        1 SB0      0.147500
     29 H2          3.9900    0.2330    2.1090 ha        1 SB0      0.144500
     30 H3          3.7260    0.8080   -2.1750 ha        1 SB0      0.144500
     31 H4          1.2410    0.9170   -2.0110 ha        1 SB0      0.147500
     32 H5          8.4670    1.0970    0.9760 h5        1 SB0      0.064100
     33 H6          8.4690   -1.0730   -2.2690 h1        1 SB0      0.075700
     34 H7          9.6360   -1.5110    0.5820 hc        1 SB0      0.058950
     35 H8          8.4920   -2.6220   -0.2810 hc        1 SB0      0.058950
     36 H9         10.1280   -2.9580   -2.1200 hc        1 SB0      0.058450
     37 H10        10.8640   -3.3640   -0.5200 hc        1 SB0      0.058450
     38 H11        12.0310   -1.1760   -0.4350 h1        1 SB0      0.034700
     39 H12        12.9030   -2.8980   -1.7540 ho        1 SB0      0.402000
     40 H13        10.7490   -0.6520   -3.2150 hc        1 SB0      0.058450
     41 H14        11.9000    0.4230   -2.3280 hc        1 SB0      0.058450
     42 H15         9.5430    1.2070   -2.0700 hc        1 SB0      0.058950
     43 H16        10.2640    0.7320   -0.4770 hc        1 SB0      0.058950
     44 H17         5.3820   -6.4840   -3.4430 h1        1 SB0      0.055700
     45 H18         4.1320   -5.3080   -4.1120 h1        1 SB0      0.055700
     46 H19         5.8290   -5.3390   -4.8150 h1        1 SB0      0.055700
     47 H20         4.7210   -1.0390   -5.3910 h4        1 SB0      0.034100
     48 H21         5.4350    0.5300   -3.5070 ha        1 SB0      0.165000
@<TRIPOS>BOND
     1    1    2 1   
     2    2    3 ar  
     3    2    7 ar  
     4    3    4 ar  
     5    3   28 1   
     6    4    5 ar  
     7    4   29 1   
     8    5    6 ar  
     9    5    8 1   
    10    6    7 ar  
    11    6   30 1   
    12    7   31 1   
    13    8    9 1   
    14    8   19 2   
    15    9   10 2   
    16   10   11 1   
    17   10   32 1   
    18   11   12 1   
    19   11   19 1   
    20   12   13 1   
    21   12   18 1   
    22   12   33 1   
    23   13   14 1   
    24   13   34 1   
    25   13   35 1   
    26   14   15 1   
    27   14   36 1   
    28   14   37 1   
    29   15   16 1   
    30   15   17 1   
    31   15   38 1   
    32   16   39 1   
    33   17   18 1   
    34   17   40 1   
    35   17   41 1   
    36   18   42 1   
    37   18   43 1   
    38   19   20 1   
    39   20   21 ar  
    40   20   27 ar  
    41   21   22 ar  
    42   22   23 1   
    43   22   25 ar  
    44   23   24 1   
    45   24   44 1   
    46   24   45 1   
    47   24   46 1   
    48   25   26 ar  
    49   26   27 ar  
    50   26   47 1   
    51   27   48 1   
@<TRIPOS>SUBSTRUCTURE
     1 SB0         1 TEMP              0 ****  ****    0 ROOT
