@<TRIPOS>MOLECULE
SB1
   70    71     1     0     0
SMALL
bcc


@<TRIPOS>ATOM
      1 N1           0.0000     0.0000     0.0000 n          1 SB1      -0.124800
      2 C2          -0.7110    -0.9520    -0.6230 c          1 SB1       0.506100
      3 O2          -0.2370    -1.5440    -1.5710 o          1 SB1      -0.606100
      4 C3          -2.0720    -1.3290    -0.1470 c          1 SB1       0.563100
      5 O3          -2.5030    -0.8690     0.8870 o          1 SB1      -0.534100
      6 C4          -2.9220    -2.3000    -0.9240 c3         1 SB1      -0.160000
      7 C5          -2.8960    -1.9580    -2.4140 c3         1 SB1       0.222400
      8 O6          -2.7360    -3.1750    -3.1860 os         1 SB1      -0.407900
      9 C7          -3.1450    -3.2300    -4.4630 c          1 SB1       0.697100
     10 O7          -3.5500    -2.2340    -5.0130 o          1 SB1      -0.592000
     11 C8          -3.1150    -4.5400    -5.2060 c3         1 SB1      -0.072400
     12 C9          -2.3240    -4.3790    -6.5050 c3         1 SB1      -0.023400
     13 C10         -1.1800    -5.3940    -6.5360 c3         1 SB1      -0.036400
     14 C11         -0.0310    -4.8480    -7.3850 c3         1 SB1      -0.032400
     15 C12          1.2860    -5.4810    -6.9330 c3         1 SB1      -0.034400
     16 C13          2.4140    -4.4540    -7.0420 c3         1 SB1      -0.032400
     17 C14          3.2210    -4.4420    -5.7420 c3         1 SB1      -0.031400
     18 C15          4.1740    -3.2460    -5.7430 c3         1 SB1      -0.034400
     19 C16          4.7480    -3.0480    -4.3390 c3         1 SB1      -0.026400
     20 C17          4.1100    -1.8200    -3.6870 c3         1 SB1      -0.044400
     21 C18          3.2500    -2.2580    -2.5000 c3         1 SB1       0.233400
     22 O19          2.6500    -1.0950    -1.8750 os         1 SB1      -0.411900
     23 C20          2.0110    -1.2160    -0.7010 c          1 SB1       0.715100
     24 O20          1.8860    -2.3080    -0.2000 o          1 SB1      -0.582000
     25 C21          1.4720     0.0000     0.0000 c3         1 SB1      -0.007300
     26 C22          1.9580     0.0000     1.4540 c3         1 SB1      -0.038400
     27 C23          1.3460     1.1850     2.2040 c3         1 SB1      -0.026400
     28 C24         -0.1810     1.0580     2.1890 c3         1 SB1      -0.042400
     29 C25         -0.6600     1.0940     0.7330 c3         1 SB1       0.033000
     30 C26         -4.3680    -2.2170    -0.4190 c3         1 SB1       0.013900
     31 C27         -2.4020    -3.7250    -0.7150 c3         1 SB1       0.013900
     32 H51         -3.8250    -1.4740    -2.6900 h1         1 SB1       0.028200
     33 H52         -2.0670    -1.2910    -2.6160 h1         1 SB1       0.028200
     34 H81         -2.6440    -5.2940    -4.5880 hc         1 SB1       0.036700
     35 H82         -4.1280    -4.8460    -5.4380 hc         1 SB1       0.036700
     36 H91         -1.9170    -3.3760    -6.5580 hc         1 SB1       0.028700
     37 H92         -2.9790    -4.5480    -7.3500 hc         1 SB1       0.028700
     38 H101        -1.5340    -6.3240    -6.9650 hc         1 SB1       0.018200
     39 H102        -0.8290    -5.5730    -5.5270 hc         1 SB1       0.018200
     40 H111        -0.2070    -5.0860    -8.4270 hc         1 SB1       0.018700
     41 H112         0.0260    -3.7720    -7.2660 hc         1 SB1       0.018700
     42 H121         1.5110    -6.3330    -7.5630 hc         1 SB1       0.017200
     43 H122         1.1940    -5.8080    -5.9040 hc         1 SB1       0.017200
     44 H131         1.9920    -3.4710    -7.2150 hc         1 SB1       0.016700
     45 H132         3.0630    -4.7180    -7.8680 hc         1 SB1       0.016700
     46 H141         2.5460    -4.3640    -4.8990 hc         1 SB1       0.017700
     47 H142         3.7930    -5.3580    -5.6640 hc         1 SB1       0.017700
     48 H151         3.6350    -2.3550    -6.0420 hc         1 SB1       0.018200
     49 H152         4.9830    -3.4290    -6.4400 hc         1 SB1       0.018200
     50 H161         5.8190    -2.9040    -4.4050 hc         1 SB1       0.018700
     51 H162         4.5380    -3.9240    -3.7380 hc         1 SB1       0.018700
     52 H171         4.8880    -1.1500    -3.3410 hc         1 SB1       0.024200
     53 H172         3.4890    -1.3080    -4.4120 hc         1 SB1       0.024200
     54 H181         2.4700    -2.9240    -2.8470 h1         1 SB1       0.013200
     55 H182         3.8700    -2.7750    -1.7780 h1         1 SB1       0.013200
     56 H21          1.8290     0.8940    -0.4960 h1         1 SB1       0.041700
     57 H221         3.0380     0.0840     1.4710 hc         1 SB1       0.035700
     58 H222         1.6560    -0.9230     1.9340 hc         1 SB1       0.035700
     59 H231         1.6350     2.1080     1.7170 hc         1 SB1       0.018700
     60 H232         1.6970     1.1830     3.2290 hc         1 SB1       0.018700
     61 H241        -0.6190     1.8840     2.7360 hc         1 SB1       0.029700
     62 H242        -0.4720     0.1180     2.6430 hc         1 SB1       0.029700
     63 H251        -1.7340     0.9580     0.7000 h1         1 SB1       0.039200
     64 H252        -0.3930     2.0440     0.2860 h1         1 SB1       0.039200
     65 H261        -4.7420    -1.2090    -0.5550 hc         1 SB1       0.016700
     66 H262        -4.9860    -2.9100    -0.9770 hc         1 SB1       0.016700
     67 H263        -4.3980    -2.4730     0.6340 hc         1 SB1       0.016700
     68 H271        -3.1350    -4.4340    -1.0800 hc         1 SB1       0.016700
     69 H272        -2.2290    -3.8950     0.3410 hc         1 SB1       0.016700
     70 H273        -1.4740    -3.8540    -1.2590 hc         1 SB1       0.016700
@<TRIPOS>BOND
     1     1     2 1   
     2     1    25 1   
     3     1    29 1   
     4     2     3 2   
     5     2     4 1   
     6     4     5 2   
     7     4     6 1   
     8     6     7 1   
     9     6    30 1   
    10     6    31 1   
    11     7     8 1   
    12     7    32 1   
    13     7    33 1   
    14     8     9 1   
    15     9    10 2   
    16     9    11 1   
    17    11    12 1   
    18    11    34 1   
    19    11    35 1   
    20    12    13 1   
    21    12    36 1   
    22    12    37 1   
    23    13    14 1   
    24    13    38 1   
    25    13    39 1   
    26    14    15 1   
    27    14    40 1   
    28    14    41 1   
    29    15    16 1   
    30    15    42 1   
    31    15    43 1   
    32    16    17 1   
    33    16    44 1   
    34    16    45 1   
    35    17    18 1   
    36    17    46 1   
    37    17    47 1   
    38    18    19 1   
    39    18    48 1   
    40    18    49 1   
    41    19    20 1   
    42    19    50 1   
    43    19    51 1   
    44    20    21 1   
    45    20    52 1   
    46    20    53 1   
    47    21    22 1   
    48    21    54 1   
    49    21    55 1   
    50    22    23 1   
    51    23    24 2   
    52    23    25 1   
    53    25    26 1   
    54    25    56 1   
    55    26    27 1   
    56    26    57 1   
    57    26    58 1   
    58    27    28 1   
    59    27    59 1   
    60    27    60 1   
    61    28    29 1   
    62    28    61 1   
    63    28    62 1   
    64    29    63 1   
    65    29    64 1   
    66    30    65 1   
    67    30    66 1   
    68    30    67 1   
    69    31    68 1   
    70    31    69 1   
    71    31    70 1   
@<TRIPOS>SUBSTRUCTURE
     1 SB1         1 TEMP              0 ****  ****    0 ROOT
