@<TRIPOS>MOLECULE
SB2
   43    44     1     0     0
SMALL
bcc


@<TRIPOS>ATOM
      1 O2          0.0740    0.6850   -0.1420 o         1 SB2     -0.776000
      2 C1          2.6000    1.0090   -0.5160 c3        1 SB2     -0.674000
      3 S1          1.3450   -0.0780   -0.0070 s4        1 SB2      1.446000
      4 CA1         0.7900    0.0480    4.0320 c2        1 SB2     -0.008000
      5 CA2         0.5370    0.2290    2.5920 c3        1 SB2     -0.147000
      6 CA3         1.6460   -0.1630    1.6920 c2        1 SB2     -0.501000
      7 CA4         2.8050   -0.6450    2.2010 c2        1 SB2     -0.119000
      8 CA5         3.0340   -0.8230    3.6060 c1        1 SB2     -0.094000
      9 CA6         1.9770   -0.4480    4.4890 c2        1 SB2     -0.106000
     10 NB1         7.1810   -2.8080   10.3430 n2        1 SB2     -0.109000
     11 CB2         6.3590   -3.7860   10.5140 c2        1 SB2     -0.050000
     12 CB3         4.6520   -2.8720    9.0140 c1        1 SB2      0.197000
     13 CB4         4.4490   -1.6340    8.6170 c2        1 SB2     -0.402000
     14 CB5         9.2180   -2.8220    8.8100 c1        1 SB2     -0.210000
     15 CB6         8.2430   -2.8800    9.5110 c1        1 SB2     -0.121000
     16 NC1         3.4500   -1.1280    6.3880 na        1 SB2     -0.153000
     17 CC2         2.2270   -0.6260    5.9180 c2        1 SB2      0.008000
     18 NC3         1.3790   -0.3520    6.9500 n2        1 SB2     -0.144000
     19 CC4         2.0750   -0.6810    8.1170 c2        1 SB2     -0.066000
     20 CC5         3.3700   -1.1690    7.7780 c2        1 SB2     -0.035000
     21 CD1         2.3410   -0.2340   10.5390 ca        1 SB2     -0.089000
     22 CD2         1.8130   -0.0920   11.8170 ca        1 SB2     -0.170000
     23 CD3         0.4290   -0.2470   12.0150 ca        1 SB2      0.088000
     24 CD4        -0.4120   -0.5410   10.9270 ca        1 SB2     -0.170000
     25 CD5         0.1330   -0.6800    9.6550 ca        1 SB2     -0.089000
     26 CD6         1.5130   -0.5330    9.4480 ca        1 SB2     -0.008000
     27 H11         3.5780    0.7640   -0.0430 h1        1 SB2      0.132667
     28 H12         2.7160    0.9110   -1.6220 h1        1 SB2      0.132667
     29 H13         2.3770    2.0820   -0.3060 h1        1 SB2      0.132667
     30 HA1        -0.3960   -0.3470    2.3080 hc        1 SB2      0.165000
     31 HA2        -0.0320    0.3330    4.7130 ha        1 SB2      0.163000
     32 HA4         0.2810    1.3160    2.3960 hc        1 SB2      0.165000
     33 HA5         3.6420   -0.9310    1.5400 ha        1 SB2      0.142000
     34 HB2         6.3920   -4.7800   10.0310 h4        1 SB2      0.133500
     35 HB3         5.5400   -3.6200   11.2400 h4        1 SB2      0.133500
     36 HB5         5.1590   -0.8430    8.9560 ha        1 SB2      0.208000
     37 HB6        10.0790   -2.7600    8.1970 ha        1 SB2      0.232000
     38 HN1         4.2090   -1.3890    5.8070 hn        1 SB2      0.284000
     39 HD1         3.4230   -0.1050   10.3830 ha        1 SB2      0.145000
     40 HD2         2.4630    0.1430   12.6710 ha        1 SB2      0.147000
     41 HD4        -1.4930   -0.6580   11.0900 ha        1 SB2      0.147000
     42 HD5        -0.5300   -0.9070    8.8050 ha        1 SB2      0.145000
     43 FD3        -0.0950   -0.1120   13.2580 f         1 SB2     -0.109000
@<TRIPOS>BOND
     1    1    3 1   
     2    2    3 1   
     3    2   27 1   
     4    2   28 1   
     5    2   29 1   
     6    3    6 1   
     7    4    5 1   
     8    4    9 1   
     9    4   31 1   
    10    5    6 1   
    11    5   30 1   
    12    5   32 1   
    13    6    7 1   
    14    7    8 1   
    15    7   33 1   
    16    8    9 1   
    17    9   17 1   
    18   10   11 1   
    19   10   15 1   
    20   11   34 1   
    21   11   35 1   
    22   12   13 1   
    23   13   20 1   
    24   13   36 1   
    25   14   15 1   
    26   14   37 1   
    27   16   17 1   
    28   16   20 1   
    29   16   38 1   
    30   17   18 1   
    31   18   19 1   
    32   19   20 1   
    33   19   26 1   
    34   21   22 1   
    35   21   26 1   
    36   21   39 1   
    37   22   23 1   
    38   22   40 1   
    39   23   24 1   
    40   23   43 1   
    41   24   25 1   
    42   24   41 1   
    43   25   26 1   
    44   25   42 1   
@<TRIPOS>SUBSTRUCTURE
     1 SB2         1 TEMP              0 ****  ****    0 ROOT
