@<TRIPOS>MOLECULE
molecule
   43    46     1     0     0
SMALL
bcc


@<TRIPOS>ATOM
      1 O2           0.0000     0.0000     0.0000 o          1 SB2      -0.513200
      2 C1           2.0260     1.6900    -0.2570 c3         1 SB2      -0.106800
      3 S1           1.4220     0.0000     0.0000 sx         1 SB2       0.340400
      4 CA1          1.2060    -0.2400     4.0030 ca         1 SB2      -0.125000
      5 CA2          0.9030     0.0000     2.6790 ca         1 SB2      -0.055500
      6 CA3          1.8170    -0.3100     1.6890 ca         1 SB2      -0.113500
      7 CA4          3.0410    -0.8650     2.0180 ca         1 SB2      -0.055500
      8 CA5          3.3580    -1.1120     3.3380 ca         1 SB2      -0.125000
      9 CA6          2.4400    -0.7990     4.3430 ca         1 SB2      -0.081500
     10 NB1          6.7750    -3.1540    10.2280 nb         1 SB2      -0.689000
     11 CB2          5.5250    -3.5540    10.3690 ca         1 SB2       0.421700
     12 CB3          4.5350    -3.0960     9.5260 ca         1 SB2      -0.243300
     13 CB4          4.8750    -2.1930     8.5090 ca         1 SB2       0.025000
     14 CB5          6.2140    -1.7960     8.3970 ca         1 SB2      -0.243300
     15 CB6          7.1370    -2.3050     9.2830 ca         1 SB2       0.421700
     16 NC1          3.9400    -1.6000     6.2100 na         1 SB2      -0.278900
     17 CC2          2.7720    -1.0600     5.7590 cc         1 SB2       0.458000
     18 NC3          1.9890    -0.8070     6.7830 nd         1 SB2      -0.690000
     19 CC4          2.6060    -1.1670     7.9200 cd         1 SB2       0.375800
     20 CC5          3.8500    -1.6750     7.5820 cc         1 SB2      -0.171600
     21 CD1          2.4710     0.1420    10.4490 ca         1 SB2      -0.098500
     22 CD2          1.9030     0.3310    11.6930 ca         1 SB2      -0.165500
     23 CD3          0.5770    -0.0040    11.9090 ca         1 SB2       0.127900
     24 CD4         -0.1860    -0.5310    10.8780 ca         1 SB2      -0.165500
     25 CD5          0.3730    -0.7230     9.6320 ca         1 SB2      -0.098500
     26 CD6          1.7080    -0.3880     9.4100 ca         1 SB2      -0.067500
     27 H11          3.0920     1.7250    -0.0670 h1         1 SB2       0.075700
     28 H12          1.5170     2.3630     0.4230 h1         1 SB2       0.075700
     29 H13          1.8310     1.9930    -1.2780 h1         1 SB2       0.075700
     30 HA1          0.4890     0.0040     4.7780 ha         1 SB2       0.141500
     31 HA2         -0.0540     0.4340     2.4140 ha         1 SB2       0.144500
     32 HA4          3.7520    -1.1070     1.2370 ha         1 SB2       0.144500
     33 HA5          4.3170    -1.5460     3.5940 ha         1 SB2       0.141500
     34 HB2          5.2740    -4.2520    11.1580 h4         1 SB2       0.026600
     35 HB3          3.5110    -3.4280     9.6480 ha         1 SB2       0.145500
     36 HB5          6.5180    -1.1000     7.6250 ha         1 SB2       0.145500
     37 HB6          8.1750    -2.0050     9.2050 h4         1 SB2       0.026600
     38 HN1          4.6540    -2.0140     5.6440 hn         1 SB2       0.307700
     39 HD1          3.5090     0.4040    10.2810 ha         1 SB2       0.151500
     40 HD2          2.4960     0.7420    12.5010 ha         1 SB2       0.150500
     41 HD4         -1.2230    -0.7920    11.0520 ha         1 SB2       0.150500
     42 HD5         -0.2240    -1.1360     8.8270 ha         1 SB2       0.151500
     43 FD3          0.0250     0.1820    13.1280 f          1 SB2      -0.139900
@<TRIPOS>BOND
     1     1     3 2
     2     2     3 1
     3     2    27 1
     4     2    28 1
     5     2    29 1
     6     3     6 1
     7     4     5 ar
     8     4     9 ar
     9     4    30 1
    10     5     6 ar
    11     5    31 1
    12     6     7 ar
    13     7     8 ar
    14     7    32 1
    15     8     9 ar
    16     8    33 1
    17     9    17 1
    18    10    11 ar
    19    10    15 ar
    20    11    12 ar
    21    11    34 1
    22    12    13 ar
    23    12    35 1
    24    13    14 ar
    25    13    20 1
    26    14    15 ar
    27    14    36 1
    28    15    37 1
    29    16    17 1
    30    16    20 1
    31    16    38 1
    32    17    18 2
    33    18    19 1
    34    19    20 2
    35    19    26 1
    36    21    22 ar
    37    21    26 ar
    38    21    39 1
    39    22    23 ar
    40    22    40 1
    41    23    24 ar
    42    23    43 1
    43    24    25 ar
    44    24    41 1
    45    25    26 ar
    46    25    42 1
@<TRIPOS>SUBSTRUCTURE
     1 SB2         1 TEMP              0 ****  ****    0 ROOT
