@<TRIPOS>MOLECULE
molecule
   68    70     1     0     0
SMALL
bcc


@<TRIPOS>ATOM
      1 C1           0.0000     0.0000     0.0000 c          1 SB3       0.649100
      2 C2           1.5060     0.0000     0.0000 c3         1 SB3       0.084700
      3 C3           2.0190     0.0000     1.4390 c3         1 SB3      -0.089400
      4 C4           3.5420     0.1380     1.4360 c3         1 SB3      -0.081400
      5 C5           3.9360     1.4640     0.7810 c3         1 SB3      -0.097400
      6 C6           3.4460     1.4760    -0.6710 c3         1 SB3       0.097000
      7 N7           2.0030     1.2010    -0.6850 n          1 SB3      -0.482800
      8 O1          -0.6050     0.9810     0.3620 o          1 SB3      -0.534000
      9 O2          -0.6710    -1.0900    -0.4020 os         1 SB3      -0.433900
     10 C8           1.1500     2.0360    -1.3110 c          1 SB3       0.580100
     11 O3           0.0870     1.6220    -1.7210 o          1 SB3      -0.554100
     12 C9           1.5140     3.4700    -1.4980 c          1 SB3       0.522100
     13 O4           2.5150     3.9100    -0.9850 o          1 SB3      -0.510100
     14 C10          0.6340     4.3700    -2.3250 c3         1 SB3      -0.144000
     15 C11          1.2280     5.7780    -2.3550 c3         1 SB3      -0.068400
     16 C12          0.3340     6.6910    -3.1960 c3         1 SB3      -0.095100
     17 C13         -0.7650     4.4210    -1.7080 c3         1 SB3      -0.081600
     18 C14          0.5420     3.8230    -3.7500 c3         1 SB3      -0.081600
     19 C15         -2.1230    -1.0910    -0.4010 c3         1 SB3       0.210400
     20 C16         -2.6320    -2.5130    -0.1570 c3         1 SB3      -0.072400
     21 C17         -2.1230    -3.0120     1.1960 c3         1 SB3      -0.038100
     22 C18         -2.6250    -4.4120     1.4370 ca         1 SB3      -0.083300
     23 C19         -1.8780    -5.4960     1.0160 ca         1 SB3      -0.125000
     24 C20         -2.3390    -6.7800     1.2370 ca         1 SB3      -0.126000
     25 C21         -3.5460    -6.9810     1.8780 ca         1 SB3      -0.131000
     26 C22         -4.2920    -5.8970     2.3010 ca         1 SB3      -0.126000
     27 C23         -3.8290    -4.6130     2.0840 ca         1 SB3      -0.125000
     28 C24         -2.6260    -0.5990    -1.7340 ca         1 SB3      -0.103300
     29 C25         -1.8790    -0.8150    -2.8770 ca         1 SB3      -0.101500
     30 C26         -2.3400    -0.3640    -4.0990 ca         1 SB3      -0.130500
     31 C27         -3.5480     0.3030    -4.1790 ca         1 SB3      -0.124000
     32 C28         -4.2950     0.5180    -3.0370 ca         1 SB3      -0.130500
     33 C29         -3.8360     0.0630    -1.8150 ca         1 SB3      -0.101500
     34 H2           1.8710    -0.8820    -0.5110 h1         1 SB3       0.070700
     35 H31          1.7420    -0.9310     1.9190 hc         1 SB3       0.062200
     36 H32          1.5830     0.8330     1.9760 hc         1 SB3       0.062200
     37 H41          3.9770    -0.6820     0.8770 hc         1 SB3       0.046700
     38 H42          3.9070     0.1190     2.4560 hc         1 SB3       0.046700
     39 H51          5.0140     1.5680     0.7980 hc         1 SB3       0.056700
     40 H52          3.4790     2.2830     1.3230 hc         1 SB3       0.056700
     41 H61          3.6340     2.4490    -1.1080 h1         1 SB3       0.067200
     42 H62          3.9660     0.7120    -1.2350 h1         1 SB3       0.067200
     43 H111         2.2190     5.7430    -2.7910 hc         1 SB3       0.050700
     44 H112         1.2920     6.1650    -1.3450 hc         1 SB3       0.050700
     45 H121        -0.5010     7.0320    -2.5950 hc         1 SB3       0.036367
     46 H122        -0.0380     6.1430    -4.0530 hc         1 SB3       0.036367
     47 H123         0.9070     7.5460    -3.5350 hc         1 SB3       0.036367
     48 H131        -0.6930     4.2820    -0.6360 hc         1 SB3       0.047700
     49 H132        -1.2180     5.3820    -1.9190 hc         1 SB3       0.047700
     50 H133        -1.3760     3.6330    -2.1330 hc         1 SB3       0.047700
     51 H141        -0.3930     4.1360    -4.1970 hc         1 SB3       0.047700
     52 H142         1.3690     4.2040    -4.3370 hc         1 SB3       0.047700
     53 H143         0.5860     2.7410    -3.7250 hc         1 SB3       0.047700
     54 H15         -2.4840    -0.4390     0.3840 h1         1 SB3       0.072700
     55 H161        -3.7150    -2.5130    -0.1580 hc         1 SB3       0.062700
     56 H162        -2.2700    -3.1660    -0.9430 hc         1 SB3       0.062700
     57 H171        -2.4840    -2.3590     1.9810 hc         1 SB3       0.052700
     58 H172        -1.0400    -3.0120     1.1960 hc         1 SB3       0.052700
     59 H19         -0.9310    -5.3390     0.5130 ha         1 SB3       0.130000
     60 H20         -1.7530    -7.6290     0.9060 ha         1 SB3       0.128500
     61 H21         -3.9080    -7.9870     2.0500 ha         1 SB3       0.128000
     62 H22         -5.2370    -6.0550     2.8060 ha         1 SB3       0.128500
     63 H23         -4.4140    -3.7630     2.4150 ha         1 SB3       0.130000
     64 H25         -0.9320    -1.3370    -2.8140 ha         1 SB3       0.133500
     65 H26         -1.7540    -0.5330    -4.9950 ha         1 SB3       0.127000
     66 H27         -3.9090     0.6570    -5.1370 ha         1 SB3       0.126000
     67 H28         -5.2430     1.0390    -3.0990 ha         1 SB3       0.127000
     68 H29         -4.4220     0.2320    -0.9200 ha         1 SB3       0.133500
@<TRIPOS>BOND
     1     1     2 1
     2     1     8 2
     3     1     9 1
     4     2     3 1
     5     2     7 1
     6     2    34 1
     7     3     4 1
     8     3    35 1
     9     3    36 1
    10     4     5 1
    11     4    37 1
    12     4    38 1
    13     5     6 1
    14     5    39 1
    15     5    40 1
    16     6     7 1
    17     6    41 1
    18     6    42 1
    19     7    10 1
    20     9    19 1
    21    10    11 2
    22    10    12 1
    23    12    13 2
    24    12    14 1
    25    14    15 1
    26    14    17 1
    27    14    18 1
    28    15    16 1
    29    15    43 1
    30    15    44 1
    31    16    45 1
    32    16    46 1
    33    16    47 1
    34    17    48 1
    35    17    49 1
    36    17    50 1
    37    18    51 1
    38    18    52 1
    39    18    53 1
    40    19    20 1
    41    19    28 1
    42    19    54 1
    43    20    21 1
    44    20    55 1
    45    20    56 1
    46    21    22 1
    47    21    57 1
    48    21    58 1
    49    22    23 ar
    50    22    27 ar
    51    23    24 ar
    52    23    59 1
    53    24    25 ar
    54    24    60 1
    55    25    26 ar
    56    25    61 1
    57    26    27 ar
    58    26    62 1
    59    27    63 1
    60    28    29 ar
    61    28    33 ar
    62    29    30 ar
    63    29    64 1
    64    30    31 ar
    65    30    65 1
    66    31    32 ar
    67    31    66 1
    68    32    33 ar
    69    32    67 1
    70    33    68 1
@<TRIPOS>SUBSTRUCTURE
     1 SB3         1 TEMP              0 ****  ****    0 ROOT
