@<TRIPOS>MOLECULE
SB4
   44    47     1     0     0
SMALL
bcc


@<TRIPOS>ATOM
      1 CA1          0.0000     0.0000     0.0000 c3         1 SB4      -0.035400
      2 CA2          1.5310     0.0000     0.0000 c3         1 SB4       0.144300
      3 NA3          2.0270     0.0000     1.3800 n7         1 SB4      -0.570200
      4 CA4          1.6300    -1.2760     1.9860 c3         1 SB4       0.144300
      5 CA5          0.1060    -1.3450     2.0950 c3         1 SB4      -0.035400
      6 CA6         -0.5040    -1.2690     0.6910 c3         1 SB4      -0.099000
      7 CB1         -6.4300    -2.4040     1.1690 ca         1 SB4      -0.056500
      8 CB2         -7.6230    -3.0070     0.8300 ca         1 SB4      -0.139500
      9 CB3         -7.7970    -3.5440    -0.4350 ca         1 SB4       0.096900
     10 CB4         -6.7740    -3.4760    -1.3670 ca         1 SB4      -0.139500
     11 CB5         -5.5790    -2.8700    -1.0390 ca         1 SB4      -0.056500
     12 CB6         -5.3970    -2.3340     0.2350 ca         1 SB4      -0.099500
     13 CC1         -1.4860    -3.2870    -1.4930 ca         1 SB4      -0.454600
     14 CC2         -2.5150    -3.3270    -0.5420 ca         1 SB4       0.578800
     15 NC3         -3.1890    -4.4640    -0.3710 nb         1 SB4      -0.680000
     16 CC4         -2.8850    -5.5410    -1.0780 ca         1 SB4       0.714900
     17 NC5         -1.9170    -5.5300    -1.9820 nb         1 SB4      -0.708000
     18 CC6         -1.2090    -4.4350    -2.2110 ca         1 SB4       0.503200
     19 NC7         -3.6010    -6.7070    -0.8710 nv         1 SB4      -0.490500
     20 ND1         -1.9650    -1.2250     0.7940 na         1 SB4       0.327100
     21 CD2         -2.6930    -0.2890     1.4370 cc         1 SB4       0.230400
     22 ND3         -3.9630    -0.5670     1.3200 nd         1 SB4      -0.610000
     23 CD4         -4.1140    -1.6880     0.5940 cd         1 SB4       0.399800
     24 CD5         -2.8480    -2.1310     0.2500 cc         1 SB4      -0.485100
     25 H11         -0.3610     0.0220    -1.0210 hc         1 SB4       0.033200
     26 H12         -0.3610     0.8700     0.5350 hc         1 SB4       0.033200
     27 H21          1.8890     0.8860    -0.5100 h1         1 SB4       0.010950
     28 H22          1.8890    -0.8860    -0.5100 h1         1 SB4       0.010950
     29 HN3          3.0250     0.0710     1.3750 hn         1 SB4       0.258800
     30 H41          2.0640    -1.3520     2.9760 h1         1 SB4       0.010950
     31 H42          1.9830    -2.0920     1.3680 h1         1 SB4       0.010950
     32 H51         -0.1800    -2.2800     2.5620 hc         1 SB4       0.033200
     33 H52         -0.2520    -0.5130     2.6890 hc         1 SB4       0.033200
     34 H6          -0.2010    -2.1370     0.1190 h1         1 SB4       0.067700
     35 HB1         -6.2960    -1.9870     2.1590 ha         1 SB4       0.114000
     36 HB2         -8.4260    -3.0610     1.5550 ha         1 SB4       0.116000
     37 HB4         -6.9140    -3.8950    -2.3560 ha         1 SB4       0.116000
     38 HB5         -4.7790    -2.8180    -1.7690 ha         1 SB4       0.114000
     39 HC6         -0.4200    -4.4390    -2.9530 h4         1 SB4      -0.020900
     40 HN71        -4.3270    -6.7330    -0.1830 hn         1 SB4       0.277300
     41 HN72        -3.3830    -7.5280    -1.4010 hn         1 SB4       0.277300
     42 H2          -2.2870     0.5610     1.9720 h5         1 SB4       0.029100
     43 FB7         -8.9670    -4.1330    -0.7630 f          1 SB4      -0.132900
     44 HC1         -0.9200    -2.3790    -1.6590 ha         1 SB4       0.129000
@<TRIPOS>BOND
     1     1     2 1   
     2     1     6 1   
     3     1    25 1   
     4     1    26 1   
     5     2     3 1   
     6     2    27 1   
     7     2    28 1   
     8     3     4 1   
     9     3    29 1   
    10     4     5 1   
    11     4    30 1   
    12     4    31 1   
    13     5     6 1   
    14     5    32 1   
    15     5    33 1   
    16     6    20 1   
    17     6    34 1   
    18     7     8 ar  
    19     7    12 ar  
    20     7    35 1   
    21     8     9 ar  
    22     8    36 1   
    23     9    10 ar  
    24     9    43 1   
    25    10    11 ar  
    26    10    37 1   
    27    11    12 ar  
    28    11    38 1   
    29    12    23 1   
    30    13    14 ar  
    31    13    18 ar  
    32    13    44 1   
    33    14    15 ar  
    34    14    24 1   
    35    15    16 ar  
    36    16    17 ar  
    37    16    19 1   
    38    17    18 ar  
    39    18    39 1   
    40    19    40 1   
    41    19    41 1   
    42    20    21 1   
    43    20    24 1   
    44    21    22 2   
    45    21    42 1   
    46    22    23 1   
    47    23    24 2   
@<TRIPOS>SUBSTRUCTURE
     1 SB4         1 TEMP              0 ****  ****    0 ROOT
