@<TRIPOS>MOLECULE
molecule
   39    42     1     0     0
SMALL
bcc


@<TRIPOS>ATOM
      1 FA1          0.0000     0.0000     0.0000 f          1 SB5      -0.146900
      2 CA1          2.0420     0.0000     1.2010 ca         1 SB5      -0.173500
      3 CA2          1.3520     0.0000     0.0000 ca         1 SB5       0.129900
      4 CA3          2.0420    -0.0000    -1.2010 ca         1 SB5      -0.173500
      5 CA4          3.4220    -0.0010    -1.2060 ca         1 SB5      -0.074500
      6 CA5          4.1210    -0.0000     0.0000 ca         1 SB5      -0.108500
      7 CA6          3.4210    -0.0060     1.2060 ca         1 SB5      -0.074500
      8 CB1          6.2410     2.5270     4.1290 ca         1 SB5       0.504200
      9 NB2          5.2040     3.3130     3.8830 nb         1 SB5      -0.804000
     10 CB3          4.5810     3.2750     2.7150 ca         1 SB5       0.949900
     11 NB4          4.9580     2.4530     1.7510 nb         1 SB5      -0.783000
     12 CB5          5.9980     1.6350     1.9240 ca         1 SB5       0.596800
     13 CB6          6.6760     1.6550     3.1500 ca         1 SB5      -0.453600
     14 NC1          7.7130     0.4270     0.5020 na         1 SB5      -0.169900
     15 CC2          6.4180     0.7340     0.8610 cc         1 SB5      -0.299100
     16 CC3          5.6020     0.0100     0.0100 cd         1 SB5       0.425800
     17 NC4          6.4000    -0.6840    -0.8180 nd         1 SB5      -0.695000
     18 CC5          7.6490    -0.4420    -0.5280 cc         1 SB5       0.421400
     19 CE1          9.3600     2.2320     0.4070 cx         1 SB5      -0.166700
     20 CE2         10.6220     2.9350     0.9100 cx         1 SB5      -0.130400
     21 CE3         10.6450     2.1840    -0.4220 cx         1 SB5      -0.130400
     22 HCA1         1.4980    -0.0050     2.1370 ha         1 SB5       0.142500
     23 HCA3         1.4970    -0.0010    -2.1370 ha         1 SB5       0.142500
     24 HCA4         3.9610     0.0010    -2.1460 ha         1 SB5       0.143500
     25 HCA6         3.9600    -0.0060     2.1460 ha         1 SB5       0.143500
     26 HCB1         6.7430     2.5670     5.0880 h4         1 SB5       0.028100
     27 HCB6         7.5230     1.0020     3.3260 ha         1 SB5       0.143000
     28 HN71         3.1420     4.6690     3.2530 hn         1 SB5       0.452800
     29 HN72         3.1180     4.2100     1.5810 hn         1 SB5       0.452800
     30 HCC5         8.5040    -0.8710    -1.0360 h5         1 SB5       0.067100
     31 HCD1         9.7220     0.2120     1.0440 h1         1 SB5       0.070200
     32 HCD2         8.7430     1.1650     2.1680 h1         1 SB5       0.070200
     33 HCE1         8.5950     2.8950     0.0200 hc         1 SB5       0.103700
     34 HC21        10.6160     4.0160     0.8370 hc         1 SB5       0.077700
     35 HC22        11.1340     2.4470     1.7310 hc         1 SB5       0.077700
     36 HC31        10.6530     2.8050    -1.3090 hc         1 SB5       0.077700
     37 HC32        11.1700     1.2360    -0.4150 hc         1 SB5       0.077700
     38 CD1          8.9330     0.9500     1.1230 c3         1 SB5       0.068300
     39 NB7          3.5020     4.1150     2.5010 nv         1 SB5      -0.987500
@<TRIPOS>BOND
     1     1     3 1
     2     2     3 ar
     3     2     7 ar
     4     2    22 1
     5     3     4 ar
     6     4     5 ar
     7     4    23 1
     8     5     6 ar
     9     5    24 1
    10     6     7 ar
    11     6    16 1
    12     7    25 1
    13     8     9 ar
    14     8    13 ar
    15     8    26 1
    16     9    10 ar
    17    10    11 ar
    18    10    39 1
    19    11    12 ar
    20    12    13 ar
    21    12    15 1
    22    13    27 1
    23    39    28 1
    24    39    29 1
    25    14    15 1
    26    14    18 1
    27    14    38 1
    28    15    16 2
    29    16    17 1
    30    17    18 2
    31    18    30 1
    32    38    19 1
    33    38    31 1
    34    38    32 1
    35    19    20 1
    36    19    21 1
    37    19    33 1
    38    20    21 1
    39    20    34 1
    40    20    35 1
    41    21    36 1
    42    21    37 1
@<TRIPOS>SUBSTRUCTURE
     1 SB5         1 TEMP              0 ****  ****    0 ROOT
