@<TRIPOS>MOLECULE
SB6
   38    41     1     0     0
SMALL
bcc


@<TRIPOS>ATOM
      1 FA1        -0.0130    0.2890    0.1990 f         1 SB6     -0.142900
      2 CA1         2.0910    0.2190    1.3330 ca        1 SB6     -0.170500
      3 CA2         1.3370    0.1890    0.1450 ca        1 SB6      0.124900
      4 CA3         1.9820    0.0580   -1.0980 ca        1 SB6     -0.170500
      5 CA4         3.3670   -0.0450   -1.1430 ca        1 SB6     -0.087000
      6 CA5         4.1270   -0.0250    0.0350 ca        1 SB6     -0.122500
      7 CA6         3.4760    0.1140    1.2700 ca        1 SB6     -0.087000
      8 CB1         5.8540   -2.2690   -4.4000 ca        1 SB6      0.391200
      9 NB2         5.1350   -3.3870   -4.1810 nb        1 SB6     -0.658000
     10 CB3         4.8180   -3.6740   -2.9040 ca        1 SB6      0.391200
     11 CB4         5.1990   -2.8800   -1.8070 ca        1 SB6     -0.232300
     12 CB5         5.9460   -1.7180   -2.0510 ca        1 SB6      0.021000
     13 CB6         6.2830   -1.4060   -3.3770 ca        1 SB6     -0.232300
     14 NC1         7.7000   -0.6040   -0.6190 na        1 SB6     -0.191900
     15 CC2         6.3580   -0.8620   -0.9530 cc        1 SB6     -0.165600
     16 CC3         5.5750   -0.1290   -0.0210 cd        1 SB6      0.378800
     17 NC4         6.4200    0.5420    0.8760 nd        1 SB6     -0.660000
     18 CC5         7.6770    0.2340    0.5050 cc        1 SB6      0.408400
     19 CD1         8.8710   -1.1820   -1.2140 c3        1 SB6      0.063300
     20 CE1         9.4660   -2.3380   -0.4490 cx        1 SB6     -0.155700
     21 CE2        10.9210   -2.6540   -0.6750 cx        1 SB6     -0.123900
     22 CE3        10.4780   -2.0760    0.6350 cx        1 SB6     -0.123900
     23 HCA1        1.5800    0.3270    2.3000 ha        1 SB6      0.148000
     24 HCA3        1.3860    0.0420   -2.0220 ha        1 SB6      0.148000
     25 HCA4        3.8740   -0.1430   -2.1160 ha        1 SB6      0.148000
     26 HCA6        4.0650    0.1460    2.2010 ha        1 SB6      0.148000
     27 HCB3        4.2260   -4.5950   -2.7510 h4        1 SB6      0.026100
     28 HCB4        4.9100   -3.1600   -0.7850 ha        1 SB6      0.152500
     29 HCB6        6.8580   -0.5010   -3.6150 ha        1 SB6      0.152500
     30 HCC5        8.5930    0.5870    0.9910 h5        1 SB6      0.064100
     31 HCD1        9.6420   -0.3630   -1.3180 h1        1 SB6      0.067700
     32 HCD2        8.5960   -1.5430   -2.2490 h1        1 SB6      0.067700
     33 HCE1        8.7590   -3.1800   -0.3110 hc        1 SB6      0.096700
     34 HE21       11.2310   -3.7130   -0.7210 hc        1 SB6      0.075200
     35 HE22       11.5060   -2.0250   -1.3690 hc        1 SB6      0.075200
     36 HE31       10.7440   -1.0310    0.8770 hc        1 SB6      0.075200
     37 HE32       10.4710   -2.7160    1.5350 hc        1 SB6      0.075200
     38 HCB1        6.0970   -2.0540   -5.4560 h4        1 SB6      0.026100
@<TRIPOS>BOND
     1    1    3 1   
     2    2    3 ar  
     3    2    7 ar  
     4    2   23 1   
     5    3    4 ar  
     6    4    5 ar  
     7    4   24 1   
     8    5    6 ar  
     9    5   25 1   
    10    6    7 ar  
    11    6   16 1   
    12    7   26 1   
    13    8    9 ar  
    14    8   13 ar  
    15    8   38 1   
    16    9   10 ar  
    17   10   11 ar  
    18   10   27 1   
    19   11   12 ar  
    20   11   28 1   
    21   12   13 ar  
    22   12   15 1   
    23   13   29 1   
    24   14   15 1   
    25   14   18 1   
    26   14   19 1   
    27   15   16 2   
    28   16   17 1   
    29   17   18 2   
    30   18   30 1   
    31   19   20 1   
    32   19   31 1   
    33   19   32 1   
    34   20   21 1   
    35   20   22 1   
    36   20   33 1   
    37   21   22 1   
    38   21   34 1   
    39   21   35 1   
    40   22   36 1   
    41   22   37 1   
@<TRIPOS>SUBSTRUCTURE
     1 SB6         1 TEMP              0 ****  ****    0 ROOT
