@<TRIPOS>MOLECULE
molecule
   38    41     1     0     0
SMALL
bcc


@<TRIPOS>ATOM
      1 FA1          0.0000     0.0000     0.0000 f          1 SB6      -0.142900
      2 CA1          2.0420     0.0000     1.2010 ca         1 SB6      -0.172000
      3 CA2          1.3510     0.0000     0.0000 ca         1 SB6       0.132900
      4 CA3          2.0420    -0.0080    -1.2000 ca         1 SB6      -0.172000
      5 CA4          3.4220    -0.0040    -1.2050 ca         1 SB6      -0.084500
      6 CA5          4.1200    -0.0040     0.0000 ca         1 SB6      -0.119500
      7 CA6          3.4210    -0.0010     1.2060 ca         1 SB6      -0.084500
      8 CB1          5.9400    -2.2760    -4.2340 ca         1 SB6       0.419200
      9 NB2          5.2060    -3.3290    -3.9290 nb         1 SB6      -0.688000
     10 CB3          4.8410    -3.5920    -2.6880 ca         1 SB6       0.419200
     11 CB4          5.2160    -2.7690    -1.6490 ca         1 SB6      -0.242300
     12 CB5          5.9960    -1.6400    -1.9260 ca         1 SB6       0.025000
     13 CB6          6.3560    -1.3950    -3.2580 ca         1 SB6      -0.242300
     14 NC1          7.7110    -0.4330    -0.5030 na         1 SB6      -0.170900
     15 CC2          6.4170    -0.7390    -0.8610 cc         1 SB6      -0.189600
     16 CC3          5.6020    -0.0140    -0.0110 cd         1 SB6       0.393800
     17 NC4          6.4020     0.6830     0.8160 nd         1 SB6      -0.688000
     18 CC5          7.6490     0.4370     0.5270 cc         1 SB6       0.412400
     19 CE1          9.3530    -2.2420    -0.4090 cx         1 SB6      -0.166700
     20 CE2         10.6140    -2.9480    -0.9130 cx         1 SB6      -0.129900
     21 CE3         10.6380    -2.1990     0.4200 cx         1 SB6      -0.129900
     22 HCA1         1.4980     0.0020     2.1380 ha         1 SB6       0.145000
     23 HCA3         1.4980    -0.0090    -2.1370 ha         1 SB6       0.145000
     24 HCA4         3.9610    -0.0090    -2.1450 ha         1 SB6       0.146500
     25 HCA6         3.9610    -0.0010     2.1460 ha         1 SB6       0.146500
     26 HCB1         6.2150    -2.0980    -5.2660 h4         1 SB6       0.025600
     27 HCB3         4.2370    -4.4690    -2.4840 h4         1 SB6       0.025600
     28 HCB4         4.9140    -2.9940    -0.6330 ha         1 SB6       0.146000
     29 HCB6         6.9580    -0.5330    -3.5160 ha         1 SB6       0.146000
     30 HCC5         8.5040     0.8660     1.0340 h5         1 SB6       0.067100
     31 HCD1         8.7410    -1.1720    -2.1690 h1         1 SB6       0.068700
     32 HCD2         9.7220    -0.2230    -1.0440 h1         1 SB6       0.068700
     33 HCE1         8.5870    -2.9040    -0.0240 hc         1 SB6       0.100700
     34 HE21        11.1270    -2.4610    -1.7330 hc         1 SB6       0.077700
     35 HE22        10.6040    -4.0290    -0.8420 hc         1 SB6       0.077700
     36 HE31        10.6430    -2.8220     1.3060 hc         1 SB6       0.077700
     37 HE32        11.1660    -1.2530     0.4150 hc         1 SB6       0.077700
     38 CD1          8.9310    -0.9580    -1.1240 c3         1 SB6       0.075300
@<TRIPOS>BOND
     1     1     3 1
     2     2     3 ar
     3     2     7 ar
     4     2    22 1
     5     3     4 ar
     6     4     5 ar
     7     4    23 1
     8     5     6 ar
     9     5    24 1
    10     6     7 ar
    11     6    16 1
    12     7    25 1
    13     8     9 ar
    14     8    13 ar
    15     8    26 1
    16     9    10 ar
    17    10    11 ar
    18    10    27 1
    19    11    12 ar
    20    11    28 1
    21    12    13 ar
    22    12    15 1
    23    13    29 1
    24    14    15 1
    25    14    18 1
    26    14    38 1
    27    15    16 2
    28    16    17 1
    29    17    18 2
    30    18    30 1
    31    38    19 1
    32    38    31 1
    33    38    32 1
    34    19    20 1
    35    19    21 1
    36    19    33 1
    37    20    21 1
    38    20    34 1
    39    20    35 1
    40    21    36 1
    41    21    37 1
@<TRIPOS>SUBSTRUCTURE
     1 SB6         1 TEMP              0 ****  ****    0 ROOT
