@<TRIPOS>MOLECULE
molecule
   28    28     1     0     0
SMALL
bcc


@<TRIPOS>ATOM
      1 C1           0.0000     0.0000     0.0000 ca         1 SB7      -0.126000
      2 C2           1.3820     0.0000     0.0000 ca         1 SB7      -0.125000
      3 C3           2.0730     0.0000     1.1970 ca         1 SB7      -0.080300
      4 C4           1.3820     0.0110     2.3940 ca         1 SB7      -0.125000
      5 C5          -0.0010     0.0150     2.3930 ca         1 SB7      -0.126000
      6 C6          -0.6910     0.0100     1.1970 ca         1 SB7      -0.132000
      7 C7           3.5800    -0.0050     1.1980 c3         1 SB7      -0.037100
      8 C8           4.0850    -1.4490     1.2080 c3         1 SB7      -0.074400
      9 C11          5.6150    -1.4550     1.2080 c3         1 SB7       0.130800
     10 N14          6.1000    -2.8410     1.2170 n3         1 SB7      -0.430100
     11 O22          5.8130    -3.3780     2.5470 oh         1 SB7      -0.462300
     12 C24          7.5630    -2.7770     1.0940 c3         1 SB7       0.332600
     13 O25          7.9120    -2.3410    -0.2210 oh         1 SB7      -0.605800
     14 H1          -0.5410    -0.0020    -0.9380 ha         1 SB7       0.128000
     15 H2           1.9240    -0.0080    -0.9380 ha         1 SB7       0.130000
     16 H4           1.9230     0.0130     3.3320 ha         1 SB7       0.130000
     17 H5          -0.5430     0.0230     3.3310 ha         1 SB7       0.128000
     18 H6          -1.7750     0.0110     1.1960 ha         1 SB7       0.127000
     19 H71          3.9430     0.4990     0.3100 hc         1 SB7       0.047700
     20 H72          3.9430     0.5110     2.0790 hc         1 SB7       0.047700
     21 H81          3.7220    -1.9520     2.0960 hc         1 SB7       0.057200
     22 H82          3.7220    -1.9650     0.3270 hc         1 SB7       0.057200
     23 H111         5.9780    -0.9510     0.3200 h1         1 SB7       0.058700
     24 H112         5.9780    -0.9400     2.0890 h1         1 SB7       0.058700
     25 H22          5.6050    -4.2950     2.4770 ho         1 SB7       0.416000
     26 H241         7.9830    -3.7590     1.2730 h2         1 SB7       0.029700
     27 H242         7.9560    -2.0780     1.8230 h2         1 SB7       0.029700
     28 H25          8.7840    -2.6340    -0.4280 ho         1 SB7       0.414000
@<TRIPOS>BOND
     1     1     2 ar
     2     1     6 ar
     3     1    14 1
     4     2     3 ar
     5     2    15 1
     6     3     4 ar
     7     3     7 1
     8     4     5 ar
     9     4    16 1
    10     5     6 ar
    11     5    17 1
    12     6    18 1
    13     7     8 1
    14     7    19 1
    15     7    20 1
    16     8     9 1
    17     8    21 1
    18     8    22 1
    19     9    10 1
    20     9    23 1
    21     9    24 1
    22    10    11 1
    23    10    12 1
    24    11    25 1
    25    12    13 1
    26    12    26 1
    27    12    27 1
    28    13    28 1
@<TRIPOS>SUBSTRUCTURE
     1 SB7         1 TEMP              0 ****  ****    0 ROOT
