@<TRIPOS>MOLECULE
SB8
   36    37     1     0     0
SMALL
bcc


@<TRIPOS>ATOM
      1 C1           0.0000     0.0000     0.0000 ca         1 SB8      -0.078000
      2 C2           1.3970     0.0000     0.0000 ca         1 SB8      -0.138600
      3 C3           2.0900     0.0000     1.2120 ca         1 SB8      -0.125000
      4 C4           1.3870    -0.0110     2.4050 ca         1 SB8       0.120100
      5 C5          -0.0010    -0.0100     2.3940 ca         1 SB8      -0.199000
      6 C6          -0.6890    -0.0050     1.1960 ca         1 SB8      -0.070000
      7 C7           2.1380     0.0050    -1.2780 c          1 SB8       0.649300
      8 O8           1.5400     0.1480    -2.3270 o          1 SB8      -0.555100
      9 C9           3.6060    -0.1640    -1.2810 ca         1 SB8      -0.173600
     10 C10          4.3860     0.4890    -2.2390 ca         1 SB8      -0.062500
     11 C11          5.7550     0.3320    -2.2320 ca         1 SB8      -0.111500
     12 C12          6.3570    -0.4810    -1.2870 ca         1 SB8      -0.075000
     13 C13          5.5910    -1.1360    -0.3390 ca         1 SB8      -0.111500
     14 C14          4.2200    -0.9820    -0.3300 ca         1 SB8      -0.062500
     15 O24          2.0570    -0.0160     3.5880 os         1 SB8      -0.266900
     16 C25          1.0710    -0.0210     4.6220 c3         1 SB8       0.154400
     17 C26          1.7630    -0.0260     5.9860 c3         1 SB8       0.044000
     18 N29          2.5050     1.2250     6.1630 n          1 SB8      -0.046300
     19 O32          3.9160     1.2330     6.0480 oh         1 SB8      -0.422100
     20 C34          1.8450     2.3670     6.4360 c          1 SB8       0.612900
     21 O35          2.4590     3.4030     6.5820 o          1 SB8      -0.622100
     22 H1          -0.5420     0.0020    -0.9380 ha         1 SB8       0.126000
     23 H3           3.1730    -0.0000     1.2190 ha         1 SB8       0.146000
     24 H5          -0.5480    -0.0170     3.3300 ha         1 SB8       0.127000
     25 H6          -1.7730    -0.0050     1.1950 ha         1 SB8       0.105000
     26 H10          3.9160     1.1250    -2.9790 ha         1 SB8       0.120000
     27 H11          6.3620     0.8400    -2.9720 ha         1 SB8       0.106500
     28 H12          7.4330    -0.6030    -1.2870 ha         1 SB8       0.102000
     29 H13          6.0680    -1.7700     0.3980 ha         1 SB8       0.106500
     30 H14          3.6210    -1.4960     0.4120 ha         1 SB8       0.120000
     31 H251         0.4520    -0.9050     4.5270 h1         1 SB8       0.018200
     32 H252         0.4520     0.8640     4.5340 h1         1 SB8       0.018200
     33 H261         2.4490    -0.8630     6.0400 h1         1 SB8       0.033700
     34 H262         1.0190    -0.1180     6.7680 h1         1 SB8       0.033700
     35 H32          4.3020     1.1780     6.9070 ho         1 SB8       0.391000
     36 H34          0.7680     2.3550     6.5580 h5         1 SB8      -0.014800
@<TRIPOS>BOND
     1     1     2 ar  
     2     1     6 ar  
     3     1    22 1   
     4     2     3 ar  
     5     2     7 1   
     6     3     4 ar  
     7     3    23 1   
     8     4     5 ar  
     9     4    15 1   
    10     5     6 ar  
    11     5    24 1   
    12     6    25 1   
    13     7     8 2   
    14     7     9 1   
    15     9    10 ar  
    16     9    14 ar  
    17    10    11 ar  
    18    10    26 1   
    19    11    12 ar  
    20    11    27 1   
    21    12    13 ar  
    22    12    28 1   
    23    13    14 ar  
    24    13    29 1   
    25    14    30 1   
    26    15    16 1   
    27    16    17 1   
    28    16    31 1   
    29    16    32 1   
    30    17    18 1   
    31    17    33 1   
    32    17    34 1   
    33    18    19 1   
    34    18    20 1   
    35    19    35 1   
    36    20    21 2   
    37    20    36 1   
@<TRIPOS>SUBSTRUCTURE
     1 SB8         1 TEMP              0 ****  ****    0 ROOT
