@<TRIPOS>MOLECULE
SB9
   28    28     1     0     0
SMALL
bcc


@<TRIPOS>ATOM
      1 C1           0.0000     0.0000     0.0000 ca         1 SB9       0.379600
      2 N2           1.3190     0.0000     0.0000 nb         1 SB9      -0.572000
      3 C3           2.0110     0.0000     1.1220 ca         1 SB9       0.374600
      4 C4           1.3720    -0.0110     2.3480 ca         1 SB9      -0.222300
      5 C5          -0.0140    -0.0170     2.3870 ca         1 SB9      -0.060000
      6 C6          -0.7080    -0.0110     1.1870 ca         1 SB9      -0.222300
      7 C7          -0.7440     0.0070    -1.3110 c3         1 SB9      -0.041400
      8 C11          3.5180     0.0060     1.0680 c3         1 SB9      -0.063700
      9 C12          4.0010    -1.1690     0.2140 c3         1 SB9      -0.050400
     10 C15          5.5300    -1.1620     0.1590 c3         1 SB9       0.051000
     11 N18          5.9930    -2.2860    -0.6590 n          1 SB9      -0.053300
     12 O21          6.5560    -3.4280    -0.0380 oh         1 SB9      -0.432100
     13 C23          5.8850    -2.2340    -2.0010 c          1 SB9       0.617900
     14 O24          6.2680    -3.1640    -2.6780 o          1 SB9      -0.629100
     15 H4           1.9470    -0.0130     3.2660 ha         1 SB9       0.116000
     16 H5          -0.5420    -0.0250     3.3320 ha         1 SB9       0.108000
     17 H6          -1.7910    -0.0130     1.1800 ha         1 SB9       0.116000
     18 H71         -0.0340     0.0150    -2.1290 hc         1 SB9       0.014367
     19 H72         -1.3630    -0.8790    -1.3790 hc         1 SB9       0.014367
     20 H73         -1.3700     0.8900    -1.3670 hc         1 SB9       0.014367
     21 H111         3.8600     0.9360     0.6290 hc         1 SB9       0.021200
     22 H112         3.9160    -0.0880     2.0710 hc         1 SB9       0.021200
     23 H121         3.6030    -1.0740    -0.7890 hc         1 SB9       0.034700
     24 H122         3.6590    -2.0980     0.6530 hc         1 SB9       0.034700
     25 H151         5.9290    -1.2570     1.1620 h1         1 SB9       0.023700
     26 H152         5.8720    -0.2320    -0.2790 h1         1 SB9       0.023700
     27 H21          7.4940    -3.3390    -0.0070 ho         1 SB9       0.391000
     28 H23          5.4810    -1.3480    -2.4770 h5         1 SB9      -0.008800
@<TRIPOS>BOND
     1     1     2 ar  
     2     1     6 ar  
     3     1     7 1   
     4     2     3 ar  
     5     3     4 ar  
     6     3     8 1   
     7     4     5 ar  
     8     4    15 1   
     9     5     6 ar  
    10     5    16 1   
    11     6    17 1   
    12     7    18 1   
    13     7    19 1   
    14     7    20 1   
    15     8     9 1   
    16     8    21 1   
    17     8    22 1   
    18     9    10 1   
    19     9    23 1   
    20     9    24 1   
    21    10    11 1   
    22    10    25 1   
    23    10    26 1   
    24    11    12 1   
    25    11    13 1   
    26    12    27 1   
    27    13    14 2   
    28    13    28 1   
@<TRIPOS>SUBSTRUCTURE
     1 SB9         1 TEMP              0 ****  ****    0 ROOT
