@<TRIPOS>MOLECULE
molecule
   65    65     1     0     0
SMALL
bcc


@<TRIPOS>ATOM
      1 C5           0.0000     0.0000     0.0000 ca         1 SBA      -0.133500
      2 C6           1.3810     0.0000     0.0000 ca         1 SBA      -0.101000
      3 C1           2.0730     0.0000     1.1960 ca         1 SBA      -0.101300
      4 C2           1.3830    -0.0050     2.3940 ca         1 SBA      -0.101000
      5 C3           0.0010    -0.0020     2.3940 ca         1 SBA      -0.133500
      6 C4          -0.6910     0.0000     1.1970 ca         1 SBA      -0.116000
      7 C7           3.5800    -0.0000     1.1960 c3         1 SBA       0.224700
      8 O8           4.0650     1.3670     1.1960 os         1 SBA      -0.444900
      9 C9           5.3880     1.6150     1.1960 c          1 SBA       0.760100
     10 O27          6.1770     0.6910     1.1960 o          1 SBA      -0.625000
     11 N10          5.8380     2.8840     1.1970 ns         1 SBA      -0.549900
     12 C11          7.2770     3.1520     1.1660 c3         1 SBA       0.054700
     13 C12          7.6050     4.2500     2.1450 c          1 SBA       0.648100
     14 N13          8.8780     4.6670     2.2890 ns         1 SBA      -0.573900
     15 C14          9.2130     5.6640     3.3070 c3         1 SBA       0.108700
     16 C15         10.2460     6.6420     2.7460 c3         1 SBA       0.134100
     17 C23          9.7900     4.9640     4.5370 c3         1 SBA      -0.091400
     18 C24          8.7130     4.0830     5.1750 c3         1 SBA      -0.075700
     19 C25          9.3330     3.2540     6.3020 c3         1 SBA      -0.090100
     20 C26          7.6020     4.9680     5.7450 c3         1 SBA      -0.090100
     21 C19          7.6870     3.5840    -0.2430 c3         1 SBA      -0.091400
     22 C20          7.4860     2.4190    -1.2130 c3         1 SBA      -0.073700
     23 C21          7.7790     2.8860    -2.6400 c3         1 SBA      -0.090600
     24 C22          8.4380     1.2800    -0.8440 c3         1 SBA      -0.090600
     25 O28          6.7230     4.7590     2.8010 o          1 SBA      -0.612100
     26 O29         11.4260     5.9270     2.3750 oh         1 SBA      -0.603800
     27 C16         10.5940     7.6850     3.8090 c3         1 SBA       0.104400
     28 O17         11.5610     8.5970     3.2840 os         1 SBA      -0.411600
     29 C18         11.8430     9.5410     4.3190 c3         1 SBA       0.117700
     30 H5          -0.5420     0.0010    -0.9380 ha         1 SBA       0.132000
     31 H6           1.9220     0.0020    -0.9380 ha         1 SBA       0.134000
     32 H2           1.9250    -0.0060     3.3320 ha         1 SBA       0.134000
     33 H3          -0.5400    -0.0040     3.3330 ha         1 SBA       0.132000
     34 H4          -1.7740     0.0020     1.1970 ha         1 SBA       0.130000
     35 H71          3.9410    -0.5110     2.0800 h1         1 SBA       0.054700
     36 H72          3.9410    -0.5110     0.3110 h1         1 SBA       0.054700
     37 HNA          5.1890     3.6440     1.2530 hn         1 SBA       0.341500
     38 H11          7.8170     2.2530     1.4390 h1         1 SBA       0.113700
     39 HND          9.5960     4.2950     1.6990 hn         1 SBA       0.325500
     40 H14          8.3180     6.2070     3.5870 h1         1 SBA       0.095700
     41 H15          9.8370     7.1390     1.8740 h1         1 SBA       0.047700
     42 H231        10.1210     5.7060     5.2540 hc         1 SBA       0.055700
     43 H232        10.6300     4.3480     4.2410 hc         1 SBA       0.055700
     44 H24          8.2970     3.4210     4.4260 hc         1 SBA       0.055700
     45 H251         8.5660     2.6490     6.7700 hc         1 SBA       0.035533
     46 H252        10.1020     2.6100     5.8940 hc         1 SBA       0.035533
     47 H253         9.7710     3.9160     7.0390 hc         1 SBA       0.035533
     48 H261         7.1480     5.5380     4.9440 hc         1 SBA       0.035533
     49 H262         6.8510     4.3460     6.2170 hc         1 SBA       0.035533
     50 H263         8.0220     5.6470     6.4780 hc         1 SBA       0.035533
     51 H191         8.7290     3.8780    -0.2420 hc         1 SBA       0.049700
     52 H192         7.0760     4.4230    -0.5550 hc         1 SBA       0.049700
     53 H20          6.4630     2.0690    -1.1500 hc         1 SBA       0.060700
     54 H211         8.7890     3.2770    -2.6910 hc         1 SBA       0.036867
     55 H212         7.6810     2.0500    -3.3210 hc         1 SBA       0.036867
     56 H213         7.0770     3.6630    -2.9170 hc         1 SBA       0.036867
     57 H221         9.4590     1.5840    -1.0420 hc         1 SBA       0.036867
     58 H222         8.3300     1.0440     0.2080 hc         1 SBA       0.036867
     59 H223         8.2010     0.4050    -1.4370 hc         1 SBA       0.036867
     60 HOT         11.7400     6.2470     1.5460 ho         1 SBA       0.410000
     61 H161         9.7000     8.2280     4.0890 h1         1 SBA       0.040200
     62 H162        11.0030     7.1880     4.6810 h1         1 SBA       0.040200
     63 H181        10.9260    10.0340     4.6170 h1         1 SBA       0.032700
     64 H182        12.5470    10.2780     3.9530 h1         1 SBA       0.032700
     65 H183        12.2690     9.0250     5.1710 h1         1 SBA       0.032700
@<TRIPOS>BOND
     1     1     2 ar
     2     1     6 ar
     3     1    30 1
     4     2     3 ar
     5     2    31 1
     6     3     4 ar
     7     3     7 1
     8     4     5 ar
     9     4    32 1
    10     5     6 ar
    11     5    33 1
    12     6    34 1
    13     7     8 1
    14     7    35 1
    15     7    36 1
    16     8     9 1
    17     9    10 2
    18     9    11 1
    19    11    12 1
    20    11    37 1
    21    12    13 1
    22    12    21 1
    23    12    38 1
    24    13    14 1
    25    13    25 2
    26    14    15 1
    27    14    39 1
    28    15    16 1
    29    15    17 1
    30    15    40 1
    31    16    26 1
    32    16    27 1
    33    16    41 1
    34    17    18 1
    35    17    42 1
    36    17    43 1
    37    18    19 1
    38    18    20 1
    39    18    44 1
    40    19    45 1
    41    19    46 1
    42    19    47 1
    43    20    48 1
    44    20    49 1
    45    20    50 1
    46    21    22 1
    47    21    51 1
    48    21    52 1
    49    22    23 1
    50    22    24 1
    51    22    53 1
    52    23    54 1
    53    23    55 1
    54    23    56 1
    55    24    57 1
    56    24    58 1
    57    24    59 1
    58    26    60 1
    59    27    28 1
    60    27    61 1
    61    27    62 1
    62    28    29 1
    63    29    63 1
    64    29    64 1
    65    29    65 1
@<TRIPOS>SUBSTRUCTURE
     1 SBA         1 TEMP              0 ****  ****    0 ROOT
