@<TRIPOS>MOLECULE
molecule
   48    50     1     0     0
SMALL
bcc


@<TRIPOS>ATOM
      1 C01          0.0000     0.0000     0.0000 ca         1 SBB      -0.099000
      2 C02          1.3800     0.0000     0.0000 ca         1 SBB      -0.034500
      3 C03          2.0750     0.0000     1.1960 ca         1 SBB      -0.336500
      4 C04          1.3920    -0.0010     2.3990 ca         1 SBB      -0.034500
      5 C05          0.0130     0.0040     2.4130 ca         1 SBB      -0.099000
      6 C06         -0.6950    -0.0010     1.2100 ca         1 SBB      -0.034600
      7 C07         -2.1730    -0.0010     1.2190 c          1 SBB       0.647700
      8 O08         -2.7860     0.0010     0.1690 o          1 SBB      -0.570100
      9 N09         -2.8400    -0.0010     2.3900 ns         1 SBB      -0.566900
     10 C10         -4.3050    -0.0010     2.3970 c3         1 SBB       0.113000
     11 C11         -4.8070    -0.0010     3.8410 c3         1 SBB      -0.033400
     12 C12         -4.2930     1.2460     4.5610 c3         1 SBB      -0.078400
     13 C13         -4.7950     1.2450     6.0060 c3         1 SBB      -0.090100
     14 S14          3.8360    -0.0010     1.1860 sy         1 SBB       1.231200
     15 N15          4.3320     1.5780     1.1850 nz         1 SBB      -0.807500
     16 O16          4.2290    -0.5280     2.4460 o          1 SBB      -0.517300
     17 O17          4.2160    -0.5260    -0.0790 o          1 SBB      -0.517300
     18 C18         -9.4000    -1.9420     4.9830 cc         1 SBB      -0.199200
     19 C19        -10.5970    -1.4130     4.6860 cd         1 SBB      -0.091100
     20 C20         -8.3850    -1.0300     4.4520 ca         1 SBB      -0.101800
     21 N21        -10.4320    -0.2370     4.0080 na         1 SBB      -0.179400
     22 C22         -9.0900     0.0270     3.8480 ca         1 SBB      -0.036200
     23 C23         -6.9890    -1.0320     4.4400 ca         1 SBB      -0.067000
     24 C24         -8.3830     1.0620     3.2480 ca         1 SBB      -0.133000
     25 C25         -6.3140    -0.0010     3.8490 ca         1 SBB      -0.121300
     26 C26         -7.0050     1.0430     3.2520 ca         1 SBB      -0.110000
     27 HC1         -0.5420    -0.0700    -0.9350 ha         1 SBB       0.176000
     28 HC2          1.9200    -0.0050    -0.9390 ha         1 SBB       0.159500
     29 HC4          1.9420    -0.0110     3.3330 ha         1 SBB       0.159500
     30 HC5         -0.5190     0.0680     3.3550 ha         1 SBB       0.176000
     31 HN9         -2.3360    -0.0550     3.2520 hn         1 SBB       0.314500
     32 H101        -4.6680    -0.8850     1.8880 h1         1 SBB       0.068700
     33 H102        -4.6690     0.8840     1.8880 h1         1 SBB       0.068700
     34 H11         -4.4430    -0.8860     4.3490 hc         1 SBB       0.057700
     35 H121        -3.2100     1.2460     4.5550 hc         1 SBB       0.033700
     36 H122        -4.6570     2.1320     4.0530 hc         1 SBB       0.033700
     37 H131        -4.7730     0.2340     6.3940 hc         1 SBB       0.041033
     38 H132        -5.8100     1.6220     6.0350 hc         1 SBB       0.041033
     39 H133        -4.1570     1.8780     6.6100 hc         1 SBB       0.041033
     40 H151         3.9140     2.0590     0.4130 hn         1 SBB       0.492800
     41 H152         4.0550     2.0150     2.0410 hn         1 SBB       0.492800
     42 H21        -11.1760     0.3450     3.6780 hn         1 SBB       0.300700
     43 H23         -6.4440    -1.8010     4.9740 ha         1 SBB       0.130000
     44 H24         -8.9130     1.8830     2.7790 ha         1 SBB       0.131000
     45 H26         -6.4560     1.8500     2.7830 ha         1 SBB       0.128000
     46 H18         -9.2190    -2.8680     5.5150 ha         1 SBB       0.158000
     47 H153         5.3280     1.6150     1.0930 hn         1 SBB       0.492800
     48 H19        -11.5530    -1.8530     4.9450 h4         1 SBB       0.172000
@<TRIPOS>BOND
     1     1     2 ar
     2     1     6 ar
     3     1    27 1
     4     2     3 ar
     5     2    28 1
     6     3     4 ar
     7     3    14 1
     8     4     5 ar
     9     4    29 1
    10     5     6 ar
    11     5    30 1
    12     6     7 1
    13     7     8 2
    14     7     9 1
    15     9    10 1
    16     9    31 1
    17    10    11 1
    18    10    32 1
    19    10    33 1
    20    11    12 1
    21    11    25 1
    22    11    34 1
    23    12    13 1
    24    12    35 1
    25    12    36 1
    26    13    37 1
    27    13    38 1
    28    13    39 1
    29    14    15 1
    30    14    16 2
    31    14    17 2
    32    15    40 1
    33    15    41 1
    34    18    19 2
    35    18    20 1
    36    18    46 1
    37    19    21 1
    38    19    48 1
    39    20    22 ar
    40    20    23 ar
    41    21    22 1
    42    21    42 1
    43    22    24 ar
    44    23    25 ar
    45    23    43 1
    46    24    26 ar
    47    24    44 1
    48    25    26 ar
    49    26    45 1
    50    47    15 1
@<TRIPOS>SUBSTRUCTURE
     1 SBB         1 TEMP              0 ****  ****    0 ROOT
