@<TRIPOS>MOLECULE
SBC
   39    42     1     0     0
SMALL
bcc


@<TRIPOS>ATOM
      1 C1           0.0000     0.0000     0.0000 ca         1 SBC       0.037000
      2 C2           1.3810     0.0000     0.0000 ca         1 SBC      -0.104000
      3 C3           2.0730     0.0000     1.2050 ca         1 SBC      -0.103200
      4 C4           1.3740     0.0110     2.4040 ca         1 SBC      -0.104000
      5 C5          -0.0070     0.0170     2.3970 ca         1 SBC       0.037000
      6 C6          -0.6930     0.0110     1.1960 ca         1 SBC      -0.224500
      7 N7           3.4740    -0.0050     1.2080 na         1 SBC       0.775800
      8 C8           4.2460    -0.7400     0.3500 ca         1 SBC      -0.205200
      9 C9           5.5790    -0.4570     0.6820 ca         1 SBC      -0.139900
     10 C10          5.4840     0.4880     1.8020 cc         1 SBC       0.214900
     11 N11          4.1980     0.6790     2.0170 nd         1 SBC      -0.668100
     12 C12          3.9780    -1.6350    -0.7040 ca         1 SBC      -0.260900
     13 C13          6.6290    -1.0640    -0.0150 ca         1 SBC      -0.039000
     14 C14          6.3690    -1.9290    -1.0340 ca         1 SBC      -0.036000
     15 C15          5.0490    -2.2270    -1.3930 ca         1 SBC      -0.178200
     16 C16          2.7890    -2.1250    -1.2900 cc         1 SBC       0.393800
     17 N17          4.4980    -3.0370    -2.3520 na         1 SBC       0.500900
     18 N18          3.1060    -2.9440    -2.2510 nd         1 SBC      -0.587100
     19 C19          6.6040     1.1060     2.5340 c          1 SBC       0.307800
     20 N20          6.3570     1.9650     3.5440 nz         1 SBC       0.211600
     21 O21          7.7500     0.8400     2.2290 o          1 SBC      -0.418100
     22 S22         -2.4550     0.0180     1.1920 sy         1 SBC       0.951200
     23 O23         -2.8470    -0.4980     2.4570 o          1 SBC      -0.481300
     24 O24         -2.8400    -0.5150    -0.0680 o          1 SBC      -0.481300
     25 N25         -2.9440     1.6000     1.1790 nz         1 SBC      -0.129500
     26 H1          -0.5410    -0.0020    -0.9390 ha         1 SBC       0.139500
     27 H2           1.9230    -0.0090    -0.9380 ha         1 SBC       0.151500
     28 H4           1.9110     0.0140     3.3450 ha         1 SBC       0.151500
     29 H5          -0.5530     0.0260     3.3330 ha         1 SBC       0.139500
     30 H13          7.6540    -0.8450     0.2570 ha         1 SBC       0.135000
     31 H14          7.1890    -2.3900    -1.5700 ha         1 SBC       0.130000
     32 H16          1.7810    -1.8640    -0.9890 h4         1 SBC       0.018800
     33 H17          5.0040    -3.5980    -3.0080 hn         1 SBC       0.174700
     34 H201         7.2230     2.2900     3.9250 hn         1 SBC       0.246800
     35 H202         5.8320     2.7440     3.1980 hn         1 SBC       0.246800
     36 H251        -3.9440     1.6400     1.1760 hn         1 SBC       0.316800
     37 H252        -2.5930     2.0640     1.9940 hn         1 SBC       0.316800
     38 H203         5.8330     1.5000     4.2580 hn         1 SBC       0.246800
     39 H253        -2.5790     2.0550     0.3660 hn         1 SBC       0.316800
@<TRIPOS>BOND
     1     1     2 ar  
     2     1     6 ar  
     3     1    26 1   
     4     2     3 ar  
     5     2    27 1   
     6     3     4 ar  
     7     3     7 1   
     8     4     5 ar  
     9     4    28 1   
    10     5     6 ar  
    11     5    29 1   
    12     6    22 1   
    13     7     8 1   
    14     7    11 1   
    15     8     9 ar  
    16     8    12 ar  
    17     9    10 1   
    18     9    13 ar  
    19    10    11 2   
    20    10    19 1   
    21    12    15 ar  
    22    12    16 1   
    23    13    14 ar  
    24    13    30 1   
    25    14    15 ar  
    26    14    31 1   
    27    15    17 1   
    28    16    18 2   
    29    16    32 1   
    30    17    18 1   
    31    17    33 1   
    32    19    20 1   
    33    19    21 2   
    34    20    34 1   
    35    20    35 1   
    36    20    38 1   
    37    22    23 2   
    38    22    24 2   
    39    22    25 1   
    40    25    36 1   
    41    25    37 1   
    42    25    39 1   
@<TRIPOS>SUBSTRUCTURE
     1 SBC         1 TEMP              0 ****  ****    0 ROOT
