@<TRIPOS>MOLECULE
SBF
   86    90     1     0     0
SMALL
bcc


@<TRIPOS>ATOM
      1 C1           0.0000     0.0000     0.0000 c3         1 SBF      -0.017067
      2 C2           1.5290     0.0000     0.0000 c3         1 SBF      -0.034367
      3 C3           2.0390     0.0000     1.4420 c3         1 SBF      -0.017067
      4 C4           2.0410    -1.2480    -0.7210 c3         1 SBF      -0.035733
      5 C5          -0.5100    -1.2510     0.7200 c3         1 SBF      -0.034367
      6 C6          -0.0000    -1.2510     2.1630 c3         1 SBF      -0.017067
      7 C7           0.0010    -2.4990    -0.0020 c3         1 SBF      -0.035733
      8 C8           1.5300    -1.2500     2.1630 c3         1 SBF      -0.034367
      9 C9           1.5310    -2.4980    -0.0010 c3         1 SBF      -0.030000
     10 C10          2.0410    -2.4990     1.4420 c3         1 SBF      -0.035733
     11 C11          5.7580   -19.7930     2.3600 ca         1 SBF      -0.145000
     12 C12          4.4200   -19.4870     2.5870 ca         1 SBF      -0.066000
     13 C13          3.5590   -19.2900     1.5530 ca         1 SBF      -0.124000
     14 C14          6.2470   -19.9060     1.0750 ca         1 SBF       0.036600
     15 C15          5.3750   -19.7080    -0.0170 ca         1 SBF      -0.052000
     16 C16          4.0160   -19.3960     0.2280 ca         1 SBF       0.052000
     17 C17          3.1470   -19.1980    -0.8600 ca         1 SBF      -0.156500
     18 C18          3.6240   -19.3090    -2.1300 ca         1 SBF       0.035000
     19 C19          4.9610   -19.6170    -2.3700 ca         1 SBF      -0.153000
     20 C20          5.8300   -19.8150    -1.3410 ca         1 SBF      -0.012000
     21 C22          8.4650   -19.1960     1.4510 c3         1 SBF       0.179600
     22 C23          7.9120   -21.5520     1.3710 c3         1 SBF       0.179600
     23 N25          1.8670    -6.2020    -0.4740 ns         1 SBF      -0.204900
     24 C26          1.3780    -7.3990     0.2150 c3         1 SBF       0.049000
     25 C27          1.8890    -8.6470    -0.5070 c3         1 SBF      -0.042400
     26 C28          1.3790    -9.8970     0.2140 c3         1 SBF      -0.022400
     27 C29          1.8900   -11.1450    -0.5080 c3         1 SBF      -0.028400
     28 C30          1.3810   -12.3960     0.2130 c3         1 SBF      -0.028400
     29 C31          1.8910   -13.6440    -0.5090 c3         1 SBF      -0.024400
     30 C32          1.3810   -14.8940     0.2110 c3         1 SBF      -0.040400
     31 C33          1.8930   -16.1420    -0.5100 c3         1 SBF       0.226800
     32 N34          1.4040   -17.3390     0.1790 n7         1 SBF      -0.589100
     33 S36          1.4520   -18.8100    -0.5810 sy         1 SBF       1.046200
     34 O37          0.9710   -19.7620     0.3590 o          1 SBF      -0.588800
     35 O38          0.8430    -4.8680     0.9730 o          1 SBF      -0.644100
     36 C39          2.0410    -3.7460    -0.7230 c3         1 SBF      -0.092400
     37 H1          -0.3610     0.0010    -1.0210 hc         1 SBF       0.013367
     38 H1A         -0.3610     0.8840     0.5120 hc         1 SBF       0.013367
     39 H2           1.8900     0.8850    -0.5100 hc         1 SBF       0.020033
     40 H3           1.6770     0.8840     1.9530 hc         1 SBF       0.013367
     41 H3A          3.1220     0.0010     1.4430 hc         1 SBF       0.013367
     42 H4           3.1240    -1.2480    -0.7200 hc         1 SBF       0.028367
     43 H4A          1.6810    -1.2480    -1.7430 hc         1 SBF       0.028367
     44 H5          -1.5930    -1.2510     0.7200 hc         1 SBF       0.020033
     45 H6          -0.3610    -2.1350     2.6740 hc         1 SBF       0.013367
     46 H6A         -0.3620    -0.3660     2.6740 hc         1 SBF       0.013367
     47 H7          -0.3600    -2.4980    -1.0240 hc         1 SBF       0.028367
     48 H7A         -0.3600    -3.3840     0.5070 hc         1 SBF       0.028367
     49 H8           1.8910    -1.2510     3.1850 hc         1 SBF       0.020033
     50 H10          3.1240    -2.4990     1.4420 hc         1 SBF       0.028367
     51 H10A         1.6800    -3.3840     1.9520 hc         1 SBF       0.028367
     52 H11          6.4240   -19.9450     3.2010 ha         1 SBF       0.111000
     53 H12          4.0590   -19.4030     3.6050 ha         1 SBF       0.103000
     54 H13          2.5200   -19.0520     1.7510 ha         1 SBF       0.133000
     55 H18          2.9530   -19.1560    -2.9670 ha         1 SBF       0.126000
     56 H19          5.3150   -19.6990    -3.3910 ha         1 SBF       0.109000
     57 H20          6.8680   -20.0530    -1.5420 ha         1 SBF       0.122000
     58 H22          9.4580   -19.2830     1.0280 h1         1 SBF       0.005033
     59 H22A         8.0650   -18.2130     1.2340 h1         1 SBF       0.005033
     60 H22B         8.5160   -19.3350     2.5240 h1         1 SBF       0.005033
     61 H23          8.0120   -21.5110     2.4490 h1         1 SBF       0.005033
     62 H23A         8.8440   -21.8900     0.9350 h1         1 SBF       0.005033
     63 H23B         7.1200   -22.2420     1.1080 h1         1 SBF       0.005033
     64 HN25         2.4380    -6.2920    -1.2910 hn         1 SBF       0.174500
     65 H26          1.7390    -7.3990     1.2360 h1         1 SBF       0.027200
     66 H26A         0.2950    -7.3990     0.2140 h1         1 SBF       0.027200
     67 H27          2.9720    -8.6470    -0.5070 hc         1 SBF       0.016700
     68 H27A         1.5270    -8.6470    -1.5280 hc         1 SBF       0.016700
     69 H28          0.2960    -9.8970     0.2140 hc         1 SBF       0.019200
     70 H28A         1.7410    -9.8970     1.2350 hc         1 SBF       0.019200
     71 H29          2.9730   -11.1440    -0.5080 hc         1 SBF       0.015200
     72 H29A         1.5280   -11.1450    -1.5290 hc         1 SBF       0.015200
     73 H30          1.7420   -12.3960     1.2340 hc         1 SBF       0.016700
     74 H30A         0.2970   -12.3960     0.2140 hc         1 SBF       0.016700
     75 H31          2.9750   -13.6440    -0.5090 hc         1 SBF       0.016700
     76 H31A         1.5310   -13.6430    -1.5310 hc         1 SBF       0.016700
     77 H32          1.7420   -14.8940     1.2330 hc         1 SBF       0.019200
     78 H32A         0.2980   -14.8940     0.2100 hc         1 SBF       0.019200
     79 H33          2.9760   -16.1420    -0.5090 h1         1 SBF       0.016200
     80 H33A         1.5330   -16.1420    -1.5320 h1         1 SBF       0.016200
     81 HN34         1.0050   -17.2620     1.0930 hn         1 SBF       0.350800
     82 H39          1.6800    -3.7460    -1.7450 hc         1 SBF       0.029200
     83 H39A         3.1250    -3.7460    -0.7240 hc         1 SBF       0.029200
     84 C24          1.5390    -4.9780    -0.0130 c          1 SBF       0.575100
     85 N21          7.5880   -20.2150     0.8580 nh         1 SBF      -0.410000
     86 O35          0.8670   -18.6190    -1.8620 o          1 SBF      -0.588800
@<TRIPOS>BOND
     1     1     2 1   
     2     1     5 1   
     3     1    37 1   
     4     1    38 1   
     5     2     3 1   
     6     2     4 1   
     7     2    39 1   
     8     3     8 1   
     9     3    40 1   
    10     3    41 1   
    11     4     9 1   
    12     4    42 1   
    13     4    43 1   
    14     5     6 1   
    15     5     7 1   
    16     5    44 1   
    17     6     8 1   
    18     6    45 1   
    19     6    46 1   
    20     7     9 1   
    21     7    47 1   
    22     7    48 1   
    23     8    10 1   
    24     8    49 1   
    25     9    10 1   
    26     9    36 1   
    27    10    50 1   
    28    10    51 1   
    29    11    12 ar  
    30    11    14 ar  
    31    11    52 1   
    32    12    13 ar  
    33    12    53 1   
    34    13    16 ar  
    35    13    54 1   
    36    14    15 ar  
    37    14    85 1   
    38    15    16 ar  
    39    15    20 ar  
    40    16    17 ar  
    41    17    18 ar  
    42    17    33 1   
    43    18    19 ar  
    44    18    55 1   
    45    19    20 ar  
    46    19    56 1   
    47    20    57 1   
    48    21    58 1   
    49    21    59 1   
    50    21    60 1   
    51    21    85 1   
    52    22    61 1   
    53    22    62 1   
    54    22    63 1   
    55    22    85 1   
    56    23    24 1   
    57    23    64 1   
    58    23    84 1   
    59    24    25 1   
    60    24    65 1   
    61    24    66 1   
    62    25    26 1   
    63    25    67 1   
    64    25    68 1   
    65    26    27 1   
    66    26    69 1   
    67    26    70 1   
    68    27    28 1   
    69    27    71 1   
    70    27    72 1   
    71    28    29 1   
    72    28    73 1   
    73    28    74 1   
    74    29    30 1   
    75    29    75 1   
    76    29    76 1   
    77    30    31 1   
    78    30    77 1   
    79    30    78 1   
    80    31    32 1   
    81    31    79 1   
    82    31    80 1   
    83    32    33 1   
    84    32    81 1   
    85    33    34 2   
    86    33    86 2   
    87    35    84 2   
    88    36    82 1   
    89    36    83 1   
    90    36    84 1   
@<TRIPOS>SUBSTRUCTURE
     1 SBF         1 TEMP              0 ****  ****    0 ROOT
