@<TRIPOS>MOLECULE
molecule
   86    90     1     0     0
SMALL
bcc


@<TRIPOS>ATOM
      1 C1           0.0000     0.0000     0.0000 c3         1 SBF      -0.068067
      2 C2           1.5290     0.0000     0.0000 c3         1 SBF      -0.061700
      3 C3           2.0390     0.0000     1.4420 c3         1 SBF      -0.068067
      4 C4           2.0410    -1.2480    -0.7210 c3         1 SBF      -0.070733
      5 C5          -0.5100    -1.2510     0.7200 c3         1 SBF      -0.061700
      6 C6          -0.0000    -1.2510     2.1630 c3         1 SBF      -0.068067
      7 C7           0.0010    -2.4990    -0.0020 c3         1 SBF      -0.070733
      8 C8           1.5300    -1.2500     2.1630 c3         1 SBF      -0.061700
      9 C9           1.5310    -2.4980    -0.0010 c3         1 SBF      -0.036000
     10 C10          2.0410    -2.4990     1.4420 c3         1 SBF      -0.070733
     11 C11          5.7580   -19.7930     2.3600 ca         1 SBF      -0.174000
     12 C12          4.4200   -19.4870     2.5870 ca         1 SBF      -0.092000
     13 C13          3.5590   -19.2900     1.5530 ca         1 SBF      -0.144000
     14 C14          6.2470   -19.9060     1.0750 ca         1 SBF       0.110600
     15 C15          5.3750   -19.7080    -0.0170 ca         1 SBF      -0.045000
     16 C16          4.0160   -19.3960     0.2280 ca         1 SBF       0.049000
     17 C17          3.1470   -19.1980    -0.8600 ca         1 SBF      -0.315500
     18 C18          3.6240   -19.3090    -2.1300 ca         1 SBF       0.004000
     19 C19          4.9610   -19.6170    -2.3700 ca         1 SBF      -0.174000
     20 C20          5.8300   -19.8150    -1.3410 ca         1 SBF      -0.033000
     21 C22          8.4650   -19.1960     1.4510 c3         1 SBF       0.157100
     22 C23          7.9120   -21.5520     1.3710 c3         1 SBF       0.157100
     23 N25          1.8670    -6.2020    -0.4740 ns         1 SBF      -0.590900
     24 C26          1.3780    -7.3990     0.2150 c3         1 SBF       0.111000
     25 C27          1.8890    -8.6470    -0.5070 c3         1 SBF      -0.101400
     26 C28          1.3790    -9.8970     0.2140 c3         1 SBF      -0.078400
     27 C29          1.8900   -11.1450    -0.5080 c3         1 SBF      -0.081400
     28 C30          1.3810   -12.3960     0.2130 c3         1 SBF      -0.080400
     29 C31          1.8910   -13.6440    -0.5090 c3         1 SBF      -0.081400
     30 C32          1.3810   -14.8940     0.2110 c3         1 SBF      -0.090400
     31 C33          1.8930   -16.1420    -0.5100 c3         1 SBF       0.233800
     32 N34          1.4040   -17.3390     0.1790 n7         1 SBF      -0.917100
     33 S36          1.4520   -18.8100    -0.5810 sy         1 SBF       1.428200
     34 O37          0.9710   -19.7620     0.3590 o          1 SBF      -0.638800
     35 O38          0.8430    -4.8680     0.9730 o          1 SBF      -0.610100
     36 C39          2.0410    -3.7460    -0.7230 c3         1 SBF      -0.150400
     37 H1          -0.3610     0.0010    -1.0210 hc         1 SBF       0.039533
     38 H1A         -0.3610     0.8840     0.5120 hc         1 SBF       0.039533
     39 H2           1.8900     0.8850    -0.5100 hc         1 SBF       0.045367
     40 H3           1.6770     0.8840     1.9530 hc         1 SBF       0.039533
     41 H3A          3.1220     0.0010     1.4430 hc         1 SBF       0.039533
     42 H4           3.1240    -1.2480    -0.7200 hc         1 SBF       0.049700
     43 H4A          1.6810    -1.2480    -1.7430 hc         1 SBF       0.049700
     44 H5          -1.5930    -1.2510     0.7200 hc         1 SBF       0.045367
     45 H6          -0.3610    -2.1350     2.6740 hc         1 SBF       0.039533
     46 H6A         -0.3620    -0.3660     2.6740 hc         1 SBF       0.039533
     47 H7          -0.3600    -2.4980    -1.0240 hc         1 SBF       0.049700
     48 H7A         -0.3600    -3.3840     0.5070 hc         1 SBF       0.049700
     49 H8           1.8910    -1.2510     3.1850 hc         1 SBF       0.045367
     50 H10          3.1240    -2.4990     1.4420 hc         1 SBF       0.049700
     51 H10A         1.6800    -3.3840     1.9520 hc         1 SBF       0.049700
     52 H11          6.4240   -19.9450     3.2010 ha         1 SBF       0.133000
     53 H12          4.0590   -19.4030     3.6050 ha         1 SBF       0.133000
     54 H13          2.5200   -19.0520     1.7510 ha         1 SBF       0.146000
     55 H18          2.9530   -19.1560    -2.9670 ha         1 SBF       0.154000
     56 H19          5.3150   -19.6990    -3.3910 ha         1 SBF       0.136000
     57 H20          6.8680   -20.0530    -1.5420 ha         1 SBF       0.156000
     58 H22          9.4580   -19.2830     1.0280 h1         1 SBF       0.037867
     59 H22A         8.0650   -18.2130     1.2340 h1         1 SBF       0.037867
     60 H22B         8.5160   -19.3350     2.5240 h1         1 SBF       0.037867
     61 H23          8.0120   -21.5110     2.4490 h1         1 SBF       0.037867
     62 H23A         8.8440   -21.8900     0.9350 h1         1 SBF       0.037867
     63 H23B         7.1200   -22.2420     1.1080 h1         1 SBF       0.037867
     64 HN25         2.4380    -6.2920    -1.2910 hn         1 SBF       0.311500
     65 H26          1.7390    -7.3990     1.2360 h1         1 SBF       0.053700
     66 H26A         0.2950    -7.3990     0.2140 h1         1 SBF       0.053700
     67 H27          2.9720    -8.6470    -0.5070 hc         1 SBF       0.045200
     68 H27A         1.5270    -8.6470    -1.5280 hc         1 SBF       0.045200
     69 H28          0.2960    -9.8970     0.2140 hc         1 SBF       0.046200
     70 H28A         1.7410    -9.8970     1.2350 hc         1 SBF       0.046200
     71 H29          2.9730   -11.1440    -0.5080 hc         1 SBF       0.042700
     72 H29A         1.5280   -11.1450    -1.5290 hc         1 SBF       0.042700
     73 H30          1.7420   -12.3960     1.2340 hc         1 SBF       0.043700
     74 H30A         0.2970   -12.3960     0.2140 hc         1 SBF       0.043700
     75 H31          2.9750   -13.6440    -0.5090 hc         1 SBF       0.044700
     76 H31A         1.5310   -13.6430    -1.5310 hc         1 SBF       0.044700
     77 H32          1.7420   -14.8940     1.2330 hc         1 SBF       0.049200
     78 H32A         0.2980   -14.8940     0.2100 hc         1 SBF       0.049200
     79 H33          2.9760   -16.1420    -0.5090 h1         1 SBF       0.048700
     80 H33A         1.5330   -16.1420    -1.5320 h1         1 SBF       0.048700
     81 HN34         1.0050   -17.2620     1.0930 hn         1 SBF       0.453800
     82 H39          1.6800    -3.7460    -1.7450 hc         1 SBF       0.059700
     83 H39A         3.1250    -3.7460    -0.7240 hc         1 SBF       0.059700
     84 C24          1.5390    -4.9780    -0.0130 c          1 SBF       0.659100
     85 N21          7.5880   -20.2150     0.8580 nh         1 SBF      -0.627000
     86 O35          0.8670   -18.6190    -1.8620 o          1 SBF      -0.638800
@<TRIPOS>BOND
     1     1     2 1
     2     1     5 1
     3     2     3 1
     4     2     4 1
     5     3     8 1
     6     4     9 1
     7     5     6 1
     8     5     7 1
     9     6     8 1
    10     7     9 1
    11     8    10 1
    12     9    10 1
    13     9    36 1
    14    11    12 ar
    15    11    14 ar
    16    12    13 ar
    17    13    16 ar
    18    14    15 ar
    19    14    85 1
    20    15    16 ar
    21    15    20 ar
    22    16    17 ar
    23    17    18 ar
    24    17    33 1
    25    18    19 ar
    26    19    20 ar
    27    85    21 1
    28    85    22 1
    29    84    23 1
    30    84    35 2
    31    84    36 1
    32    23    24 1
    33    24    25 1
    34    25    26 1
    35    26    27 1
    36    27    28 1
    37    28    29 1
    38    29    30 1
    39    30    31 1
    40    31    32 1
    41    32    33 1
    42    86    33 2
    43    33    34 2
    44     1    37 1
    45     1    38 1
    46     2    39 1
    47     3    40 1
    48     3    41 1
    49     4    42 1
    50     4    43 1
    51     5    44 1
    52     6    45 1
    53     6    46 1
    54     7    47 1
    55     7    48 1
    56     8    49 1
    57    10    50 1
    58    10    51 1
    59    11    52 1
    60    12    53 1
    61    13    54 1
    62    18    55 1
    63    19    56 1
    64    20    57 1
    65    21    58 1
    66    21    59 1
    67    21    60 1
    68    22    61 1
    69    22    62 1
    70    22    63 1
    71    23    64 1
    72    24    65 1
    73    24    66 1
    74    25    67 1
    75    25    68 1
    76    26    69 1
    77    26    70 1
    78    27    71 1
    79    27    72 1
    80    28    73 1
    81    28    74 1
    82    29    75 1
    83    29    76 1
    84    30    77 1
    85    30    78 1
    86    31    79 1
    87    31    80 1
    88    32    81 1
    89    36    82 1
    90    36    83 1
@<TRIPOS>SUBSTRUCTURE
     1 SBF         1 TEMP              0 ****  ****    0 ROOT
