@<TRIPOS>MOLECULE
SBG
   19    18     1     0     0
SMALL
bcc


@<TRIPOS>ATOM
      1 N           0.6300    1.2600   -0.0250 n3        1 SBG     -0.903800
      2 CA          1.7570    0.3480    0.0640 c3        1 SBG      0.024500
      3 CB          2.3000    0.1000    1.4910 c3        1 SBG      0.170400
      4 OG          2.7050    1.3010    2.0840 os        1 SBG     -0.602200
      5 C           1.4400   -1.0410   -0.5700 c         1 SBG      0.914600
      6 O           0.2930   -1.5490   -0.3950 o         1 SBG     -0.864800
      7 O2          2.4030    0.2710    4.4020 o         1 SBG     -0.875500
      8 P1          2.3090    1.5580    3.6690 p5        1 SBG      1.347600
      9 O1          3.0870    2.7450    4.1070 o         1 SBG     -0.875500
     10 C1          0.6720    1.9960    3.5140 c3        1 SBG     -0.359300
     11 OXT         2.3510   -1.6030   -1.2460 o         1 SBG     -0.864800
     12 HN1        -0.2200    0.7330    0.0840 hn        1 SBG      0.328300
     13 HN2         0.6780    1.9250    0.7240 hn        1 SBG      0.328300
     14 HA          2.5930    0.8190   -0.5290 h1        1 SBG      0.046700
     15 HBC1        3.1900   -0.5830    1.3930 h1        1 SBG      0.023200
     16 HBC2        1.5260   -0.4020    2.1340 h1        1 SBG      0.023200
     17 H1C1        0.0880    1.2010    3.0020 hc        1 SBG      0.046367
     18 H1C2        0.5680    2.9340    2.9270 hc        1 SBG      0.046367
     19 H1C3        0.2200    2.1630    4.5150 hc        1 SBG      0.046367
@<TRIPOS>BOND
     1    1    2 1   
     2    1   12 1   
     3    1   13 1   
     4    2    3 1   
     5    2    5 1   
     6    2   14 1   
     7    3    4 1   
     8    3   15 1   
     9    3   16 1   
    10    4    8 1   
    11    5    6 1   
    12    5   11 1   
    13    7    8 1   
    14    8    9 1   
    15    8   10 1   
    16   10   17 1   
    17   10   18 1   
    18   10   19 1   
@<TRIPOS>SUBSTRUCTURE
     1 SBG         1 TEMP              0 ****  ****    0 ROOT
