@<TRIPOS>MOLECULE
SBH
   26    25     1     0     0
SMALL
bcc


@<TRIPOS>ATOM
      1 O1          0.9230   -2.5680    2.6980 o         1 SBH     -0.958500
      2 O2          2.5750   -2.4800    0.7470 o         1 SBH     -0.958500
      3 O3          0.0980   -1.9750    0.4240 o         1 SBH     -0.958500
      4 P1          1.2890   -1.9900    1.3450 p5        1 SBH      1.473900
      5 O4          1.5360   -0.3180    1.7540 os        1 SBH     -0.825800
      6 O5          1.4180    2.2150    1.2690 o         1 SBH     -0.921500
      7 O6          2.8270    1.3580    3.2090 o         1 SBH     -0.921500
      8 P2          1.6710    1.1600    2.2900 p5        1 SBH      1.576800
      9 O7          0.3250    1.2510    3.3040 os        1 SBH     -0.598200
     10 C1          0.1990    0.1820    4.1810 c3        1 SBH      0.155400
     11 C2         -1.2450    0.0760    4.6820 c3        1 SBH     -0.064400
     12 C3         -2.0910   -0.9420    3.9170 c3        1 SBH      0.159800
     13 C4         -1.9990   -0.7210    2.4090 c3        1 SBH     -0.145100
     14 C5         -1.6850   -2.3840    4.1880 c3        1 SBH      0.003000
     15 O8         -3.4500   -0.7070    4.3500 oh        1 SBH     -0.647800
     16 BR1        -2.0360   -3.0720    6.0000 br        1 SBH     -0.356400
     17 H11         0.8490    0.3690    5.0860 h1        1 SBH      0.049200
     18 H12         0.5360   -0.7790    3.6730 h1        1 SBH      0.049200
     19 H21        -1.2460   -0.2050    5.7660 hc        1 SBH      0.017200
     20 H22        -1.7390    1.0780    4.5850 hc        1 SBH      0.017200
     21 H41        -2.9020   -1.1390    1.9040 hc        1 SBH      0.072700
     22 H42        -1.9200    0.3710    2.1940 hc        1 SBH      0.072700
     23 H43        -1.0740   -1.2210    1.9710 hc        1 SBH      0.072700
     24 H51        -0.5700   -2.5130    3.9780 h1        1 SBH      0.135700
     25 H52        -2.2630   -3.0790    3.5410 h1        1 SBH      0.135700
     26 HO8        -4.0040   -1.2720    3.8030 ho        1 SBH      0.365000
@<TRIPOS>BOND
     1    1    4 1   
     2    2    4 1   
     3    3    4 1   
     4    4    5 1   
     5    5    8 1   
     6    6    8 1   
     7    7    8 1   
     8    8    9 1   
     9    9   10 1   
    10   10   11 1   
    11   10   17 1   
    12   10   18 1   
    13   11   12 1   
    14   11   19 1   
    15   11   20 1   
    16   12   13 1   
    17   12   14 1   
    18   12   15 1   
    19   13   21 1   
    20   13   22 1   
    21   13   23 1   
    22   14   16 1   
    23   14   24 1   
    24   14   25 1   
    25   15   26 1   
@<TRIPOS>SUBSTRUCTURE
     1 SBH         1 TEMP              0 ****  ****    0 ROOT
