@<TRIPOS>MOLECULE
molecule
   26    25     1     0     0
SMALL
bcc


@<TRIPOS>ATOM
      1 O1           0.0000     0.0000     0.0000 o          1 SBH      -0.937167
      2 O2           2.1890    -1.2730    -0.7210 o          1 SBH      -0.937167
      3 O3           2.1910     1.2660    -0.7290 o          1 SBH      -0.937167
      4 P1           1.5000     0.0000     0.0000 p5         1 SBH       1.228900
      5 O4           2.1760     0.0000     1.4680 os         1 SBH      -0.678800
      6 O5           2.5370     2.4410     2.3440 o          1 SBH      -0.864500
      7 O6           2.9000     0.3430     3.8740 o          1 SBH      -0.864500
      8 P2           2.0650     1.0570     2.6860 p5         1 SBH       1.392800
      9 O7           0.5240     0.9710     3.1630 os         1 SBH      -0.580200
     10 C1          -0.0390    -0.2880     3.5140 c3         1 SBH       0.225400
     11 C2          -1.4940    -0.0980     3.9260 c3         1 SBH      -0.078400
     12 C3          -2.2520    -1.3880     4.3060 c3         1 SBH       0.158800
     13 C4          -2.3800    -2.3190     3.0910 c3         1 SBH      -0.114100
     14 C5          -1.6480    -2.1820     5.4690 c3         1 SBH      -0.012000
     15 O8          -3.5870    -1.0220     4.6830 oh         1 SBH      -0.616800
     16 Br1         -1.3340    -1.0880     7.0550 br         1 SBH      -0.203400
     17 H11          0.5180    -0.7140     4.3410 h1         1 SBH       0.033200
     18 H12          0.0110    -0.9560     2.6630 h1         1 SBH       0.033200
     19 H21         -2.0190     0.3730     3.1040 hc         1 SBH       0.060200
     20 H22         -1.5200     0.5730     4.7760 hc         1 SBH       0.060200
     21 H41         -1.4280    -2.8000     2.9020 hc         1 SBH       0.046367
     22 H42         -3.1320    -3.0730     3.2910 hc         1 SBH       0.046367
     23 H43         -2.6720    -1.7410     2.2220 hc         1 SBH       0.046367
     24 H51         -2.3230    -2.9880     5.7300 h1         1 SBH       0.063200
     25 H52         -0.7050    -2.6080     5.1470 h1         1 SBH       0.063200
     26 HO8         -4.0230    -1.7680     5.0600 ho         1 SBH       0.367000
@<TRIPOS>BOND
     1     1     4 1
     2     2     4 1
     3     3     4 1
     4     4     5 1
     5     5     8 1
     6     6     8 1
     7     7     8 1
     8     8     9 1
     9     9    10 1
    10    10    11 1
    11    10    17 1
    12    10    18 1
    13    11    12 1
    14    11    19 1
    15    11    20 1
    16    12    13 1
    17    12    14 1
    18    12    15 1
    19    13    21 1
    20    13    22 1
    21    13    23 1
    22    14    16 1
    23    14    24 1
    24    14    25 1
    25    15    26 1
@<TRIPOS>SUBSTRUCTURE
     1 SBH         1 TEMP              0 ****  ****    0 ROOT
