@<TRIPOS>MOLECULE
molecule
   26    28     1     0     0
SMALL
bcc


@<TRIPOS>ATOM
      1 C1           0.0000     0.0000     0.0000 ca         1 SBI       0.106900
      2 F1          -0.6790    -0.0040    -1.1680 f          1 SBI      -0.135900
      3 C2           1.3840     0.0000     0.0000 ca         1 SBI      -0.125000
      4 C3           2.0720     0.0000     1.1930 ca         1 SBI      -0.132000
      5 C4           1.3880     0.0010     2.4090 ca         1 SBI       0.138100
      6 O1           2.1340    -0.0150     3.5390 os         1 SBI      -0.299900
      7 C5           1.4260     0.5690     4.6210 c3         1 SBI       0.119400
      8 C6           0.1390    -0.2320     4.8690 c3         1 SBI      -0.113400
      9 C7          -0.7860     0.0210     3.6810 c3         1 SBI       0.068700
     10 C9          -1.5110     1.3340     3.8440 c          1 SBI       0.711500
     11 O3          -1.0190     2.4390     3.9260 o          1 SBI      -0.567500
     12 N2          -2.8220     1.0180     3.8810 ns         1 SBI      -0.584500
     13 C8          -3.0150    -0.3000     3.7620 c          1 SBI       0.808500
     14 O2          -4.1110    -0.8270     3.7670 o          1 SBI      -0.640500
     15 N1          -1.8580    -0.9800     3.6400 ns         1 SBI      -0.585900
     16 C10          0.0040     0.0070     2.4030 ca         1 SBI      -0.148300
     17 C11         -0.6840     0.0080     1.2010 ca         1 SBI      -0.120000
     18 H2           1.9260    -0.0260    -0.9380 ha         1 SBI       0.153000
     19 H3           3.1560    -0.0000     1.1870 ha         1 SBI       0.155000
     20 H51          2.0430     0.5460     5.5110 h1         1 SBI       0.076200
     21 H52          1.1720     1.5930     4.3750 h1         1 SBI       0.076200
     22 H61          0.3710    -1.2880     4.9360 hc         1 SBI       0.072700
     23 H62         -0.3340     0.1060     5.7830 hc         1 SBI       0.072700
     24 HN2         -3.5600     1.6870     3.9820 hn         1 SBI       0.366500
     25 HN1         -1.7520    -1.9700     3.5390 hn         1 SBI       0.376500
     26 H11         -1.7680     0.0150     1.2020 ha         1 SBI       0.153000
@<TRIPOS>BOND
     1     1     2 1
     2     1     3 ar
     3     1    17 ar
     4     3     4 ar
     5     3    18 1
     6     4     5 ar
     7     4    19 1
     8     5     6 1
     9     5    16 ar
    10     6     7 1
    11     7     8 1
    12     7    20 1
    13     7    21 1
    14     8     9 1
    15     8    22 1
    16     8    23 1
    17     9    10 1
    18     9    15 1
    19     9    16 1
    20    10    11 2
    21    10    12 1
    22    12    13 1
    23    12    24 1
    24    13    14 2
    25    13    15 1
    26    15    25 1
    27    16    17 ar
    28    17    26 1
@<TRIPOS>SUBSTRUCTURE
     1 SBI         1 TEMP              0 ****  ****    0 ROOT
