@<TRIPOS>MOLECULE
molecule
   17    17     1     0     0
SMALL
bcc


@<TRIPOS>ATOM
      1 C01          0.0000     0.0000     0.0000 ca         1 SBK      -0.056000
      2 C02          1.3850     0.0000     0.0000 ca         1 SBK      -0.124900
      3 C03          2.0610     0.0000     1.2150 ca         1 SBK       0.701600
      4 N04          1.3960     0.0010     2.3570 nb         1 SBK      -0.748000
      5 C05          0.0750     0.0010     2.3900 ca         1 SBK       0.571300
      6 C06         -0.6630     0.0070     1.2200 ca         1 SBK      -0.151900
      7 Cl6         -2.3980     0.0080     1.2770 cl         1 SBK      -0.109400
      8 Cl5         -0.7450     0.0010     3.9210 cl         1 SBK      -0.158000
      9 O09          3.4180     0.0000     1.2280 os         1 SBK      -0.368100
     10 C10          4.0540     0.0010     2.5070 c3         1 SBK       0.019400
     11 C11          5.5500    -0.0000     2.3240 c          1 SBK       0.893600
     12 O12          6.3580     0.0010     3.3960 o          1 SBK      -0.823300
     13 O13          6.0220    -0.0010     1.2120 o          1 SBK      -0.823300
     14 Cl2          2.2640    -0.0020    -1.4960 cl         1 SBK      -0.069400
     15 H011        -0.5420     0.2200    -0.9120 ha         1 SBK       0.157000
     16 H101         3.7590     0.8860     3.0570 h1         1 SBK       0.043700
     17 H102         3.7570    -0.8830     3.0590 h1         1 SBK       0.043700
@<TRIPOS>BOND
     1    13    11 1
     2    11    10 1
     3    11    12 1
     4    10     9 1
     5     9     3 1
     6     4     3 ar
     7     4     5 ar
     8     3     2 ar
     9     8     5 1
    10     5     6 ar
    11    14     2 1
    12     2     1 ar
    13     6     1 ar
    14     6     7 1
    15     1    15 1
    16    10    16 1
    17    10    17 1
@<TRIPOS>SUBSTRUCTURE
     1 SBK         1 TEMP              0 ****  ****    0 ROOT
