@<TRIPOS>MOLECULE
molecule
   34    35     1     0     0
SMALL
bcc


@<TRIPOS>ATOM
      1 C1           0.0000     0.0000     0.0000 ca         1 SBN      -0.202000
      2 C2           1.3880     0.0000     0.0000 ca         1 SBN       0.238600
      3 C3           2.0840     0.0000     1.2200 ca         1 SBN      -0.006000
      4 C4           1.3690    -0.0100     2.4200 ca         1 SBN      -0.218500
      5 C5          -0.0090    -0.0090     2.4000 ca         1 SBN      -0.058000
      6 C6          -0.6920    -0.0040     1.1950 ca         1 SBN      -0.098000
      7 S            2.2290    -0.0160     3.9580 sy         1 SBN       1.290600
      8 O1           1.2340    -0.1940     4.9560 o          1 SBN      -0.618300
      9 O2           3.1440     1.0710     3.8930 o          1 SBN      -0.618300
     10 C7           3.2200    -1.4710     4.0020 ca         1 SBN      -0.306500
     11 C8           2.7010    -2.6430     4.5200 ca         1 SBN      -0.039000
     12 C9           3.4800    -3.7840     4.5610 ca         1 SBN      -0.074300
     13 C10          4.7730    -3.7560     4.0740 ca         1 SBN      -0.074000
     14 C11          5.2890    -2.5860     3.5520 ca         1 SBN      -0.074300
     15 C12          4.5120    -1.4420     3.5160 ca         1 SBN      -0.039000
     16 N2           4.6500     0.0140     1.2550 n1         1 SBN      -0.348800
     17 C13          3.5140    -0.0010     1.2340 cg         1 SBN       0.229800
     18 N1           2.0870     0.0030    -1.2020 nv         1 SBN      -0.912200
     19 C14          2.9170    -5.0610     5.1290 c3         1 SBN      -0.063300
     20 C15          6.7000    -2.5540     3.0210 c3         1 SBN      -0.063300
     21 H1          -0.5590    -0.3050    -0.8760 ha         1 SBN       0.140000
     22 H5          -0.4840     0.0570     3.3710 ha         1 SBN       0.164000
     23 H6          -1.6100     0.3010     0.7080 ha         1 SBN       0.163000
     24 H8           1.7270    -2.6070     4.9920 ha         1 SBN       0.161500
     25 H10          5.4190    -4.6250     4.0730 ha         1 SBN       0.136000
     26 H12          4.8920    -0.4360     3.3860 ha         1 SBN       0.161500
     27 HN11         1.5230     0.2280    -1.9980 hn         1 SBN       0.429300
     28 HN12         2.9930    -0.3200    -1.4780 hn         1 SBN       0.429300
     29 H141         3.4240    -6.0140     5.0330 hc         1 SBN       0.044533
     30 H142         1.9560    -5.4490     4.8130 hc         1 SBN       0.044533
     31 H143         2.8540    -4.9120     6.2000 hc         1 SBN       0.044533
     32 H151         6.6370    -2.3460     1.9600 hc         1 SBN       0.044533
     33 H152         7.4300    -1.7820     3.2320 hc         1 SBN       0.044533
     34 H153         6.9740    -3.6020     2.9830 hc         1 SBN       0.044533
@<TRIPOS>BOND
     1     1     2 ar
     2     1     6 ar
     3     1    21 1
     4     2     3 ar
     5     2    18 1
     6     3     4 ar
     7     3    17 1
     8     4     5 ar
     9     4     7 1
    10     5     6 ar
    11     5    22 1
    12     6    23 1
    13     7     8 2
    14     7     9 2
    15     7    10 1
    16    10    11 ar
    17    10    15 ar
    18    11    12 ar
    19    11    24 1
    20    12    13 ar
    21    12    19 1
    22    13    14 ar
    23    13    25 1
    24    14    15 ar
    25    14    20 1
    26    15    26 1
    27    16    17 3
    28    18    27 1
    29    18    28 1
    30    19    29 1
    31    19    30 1
    32    19    31 1
    33    20    32 1
    34    20    33 1
    35    20    34 1
@<TRIPOS>SUBSTRUCTURE
     1 SBN         1 TEMP              0 ****  ****    0 ROOT
