@<TRIPOS>MOLECULE
molecule
   48    50     1     0     0
SMALL
bcc


@<TRIPOS>ATOM
      1 C01          0.0000     0.0000     0.0000 c3         1 SBR       0.063300
      2 C02          1.5290     0.0000     0.0000 c3         1 SBR      -0.119700
      3 C03          2.0400     0.0000     1.4420 c3         1 SBR       0.113000
      4 N04          3.5050     0.0000     1.4420 ns         1 SBR      -0.566900
      5 C05          4.1770     0.0010     2.6090 c          1 SBR       0.650700
      6 O06          3.5700     0.0020     3.6620 o          1 SBR      -0.569100
      7 C07          5.6560     0.0020     2.6100 ca         1 SBR      -0.037600
      8 C08          6.3570     0.0030     3.8170 ca         1 SBR      -0.098000
      9 C09          7.7360     0.0020     3.8090 ca         1 SBR      -0.033000
     10 C10          8.4250     0.0010     2.6100 ca         1 SBR      -0.336500
     11 C11          7.7360     0.0010     1.4100 ca         1 SBR      -0.033000
     12 C12          6.3570    -0.0050     1.4040 ca         1 SBR      -0.098000
     13 S13         10.1870     0.0030     2.6110 sy         1 SBR       1.234200
     14 O14         10.5730     0.5280     1.3480 o          1 SBR      -0.516800
     15 O15         10.5720     0.5280     3.8720 o          1 SBR      -0.516800
     16 NP6         10.6830    -1.5770     2.6120 nz         1 SBR      -0.807500
     17 N17         -0.4890    -0.0010    -1.3810 na         1 SBR      -0.079400
     18 C18         -0.7510    -1.1220    -2.1210 cc         1 SBR      -0.109100
     19 C19         -1.1840    -0.7720    -3.3420 cd         1 SBR      -0.187200
     20 C20         -0.7580     1.1240    -2.1250 ca         1 SBR      -0.038200
     21 C21         -0.6620     2.4870    -1.8680 ca         1 SBR      -0.151000
     22 C22         -1.0080     3.3940    -2.8460 ca         1 SBR      -0.103000
     23 C23         -1.4480     2.9620    -4.0890 ca         1 SBR      -0.154000
     24 C24         -1.5460     1.6280    -4.3640 ca         1 SBR      -0.073000
     25 C25         -1.2000     0.6920    -3.3890 ca         1 SBR      -0.104800
     26 C26          2.0400    -1.2500    -0.7200 c3         1 SBR      -0.092100
     27 HC11        -0.3610     0.8850     0.5100 h1         1 SBR       0.065700
     28 HC12        -0.3610    -0.8840     0.5120 h1         1 SBR       0.065700
     29 HC2          1.8910     0.8840    -0.5110 hc         1 SBR       0.069700
     30 HC31         1.6780     0.8850     1.9530 h1         1 SBR       0.065200
     31 HC32         1.6780    -0.8840     1.9530 h1         1 SBR       0.065200
     32 HN4          4.0050     0.0540     0.5770 hn         1 SBR       0.318500
     33 HC8          5.8190     0.0030     4.7570 ha         1 SBR       0.176000
     34 HC9          8.2820     0.0020     4.7450 ha         1 SBR       0.159500
     35 H11          8.2810    -0.0020     0.4740 ha         1 SBR       0.159500
     36 H12          5.8190    -0.0050     0.4630 ha         1 SBR       0.176000
     37 HN61        10.3350    -2.0370     1.7940 hn         1 SBR       0.492800
     38 HN62        11.6830    -1.6130     2.6150 hn         1 SBR       0.492800
     39 H18         -0.6300    -2.1400    -1.7720 h4         1 SBR       0.163000
     40 H19         -1.4670    -1.4460    -4.1420 ha         1 SBR       0.159000
     41 H21         -0.3200     2.8360    -0.9010 ha         1 SBR       0.120000
     42 H22         -0.9360     4.4560    -2.6430 ha         1 SBR       0.132000
     43 H23         -1.7170     3.6870    -4.8470 ha         1 SBR       0.134000
     44 H24         -1.8900     1.2970    -5.3360 ha         1 SBR       0.135000
     45 H261         1.4710    -2.1120    -0.3940 hc         1 SBR       0.041367
     46 H262         1.9230    -1.1230    -1.7890 hc         1 SBR       0.041367
     47 H263         3.0870    -1.3990    -0.4860 hc         1 SBR       0.041367
     48 HP63        10.3290    -2.0380     3.4270 hn         1 SBR       0.492800
@<TRIPOS>BOND
     1     1     2 1
     2     1    17 1
     3     1    27 1
     4     1    28 1
     5     2     3 1
     6     2    26 1
     7     2    29 1
     8     3     4 1
     9     3    30 1
    10     3    31 1
    11     4     5 1
    12     4    32 1
    13     5     6 2
    14     5     7 1
    15     7     8 ar
    16     7    12 ar
    17     8     9 ar
    18     8    33 1
    19     9    10 ar
    20     9    34 1
    21    10    11 ar
    22    10    13 1
    23    11    12 ar
    24    11    35 1
    25    12    36 1
    26    13    14 2
    27    13    15 2
    28    13    16 1
    29    16    37 1
    30    16    38 1
    31    17    18 1
    32    17    20 1
    33    18    19 2
    34    18    39 1
    35    19    25 1
    36    19    40 1
    37    20    21 ar
    38    20    25 ar
    39    21    22 ar
    40    21    41 1
    41    22    23 ar
    42    22    42 1
    43    23    24 ar
    44    23    43 1
    45    24    25 ar
    46    24    44 1
    47    26    45 1
    48    26    46 1
    49    26    47 1
    50    48    16 1
@<TRIPOS>SUBSTRUCTURE
     1 SBR         1 TEMP              0 ****  ****    0 ROOT
