@<TRIPOS>MOLECULE
SBR
   48    50     1     0     0
SMALL
bcc


@<TRIPOS>ATOM
      1 C01          0.0000     0.0000     0.0000 c3         1 SBR      -0.026700
      2 C02          1.5290     0.0000     0.0000 c3         1 SBR      -0.091700
      3 C03          2.0400     0.0000     1.4420 c3         1 SBR       0.053000
      4 N04          3.5050     0.0000     1.4420 ns         1 SBR      -0.174900
      5 C05          4.1770     0.0010     2.6090 c          1 SBR       0.561700
      6 O06          3.5700     0.0020     3.6620 o          1 SBR      -0.612100
      7 C07          5.6560     0.0020     2.6100 ca         1 SBR      -0.039600
      8 C08          6.3570     0.0030     3.8170 ca         1 SBR      -0.076500
      9 C09          7.7360     0.0020     3.8090 ca         1 SBR       0.007500
     10 C10          8.4250     0.0010     2.6100 ca         1 SBR      -0.223500
     11 C11          7.7360     0.0010     1.4100 ca         1 SBR       0.007500
     12 C12          6.3570    -0.0050     1.4040 ca         1 SBR      -0.076500
     13 S13         10.1870     0.0030     2.6110 sy         1 SBR       0.943200
     14 O14         10.5730     0.5280     1.3480 o          1 SBR      -0.495300
     15 O15         10.5720     0.5280     3.8720 o          1 SBR      -0.495300
     16 NP6         10.6830    -1.5770     2.6120 nz         1 SBR      -0.132500
     17 N17         -0.4890    -0.0010    -1.3810 na         1 SBR       0.382600
     18 C18         -0.7510    -1.1220    -2.1210 cc         1 SBR      -0.265100
     19 C19         -1.1840    -0.7720    -3.3420 cd         1 SBR      -0.146200
     20 C20         -0.7580     1.1240    -2.1250 ca         1 SBR      -0.208200
     21 C21         -0.6620     2.4870    -1.8680 ca         1 SBR      -0.116000
     22 C22         -1.0080     3.3940    -2.8460 ca         1 SBR      -0.076000
     23 C23         -1.4480     2.9620    -4.0890 ca         1 SBR      -0.129000
     24 C24         -1.5460     1.6280    -4.3640 ca         1 SBR      -0.036000
     25 C25         -1.2000     0.6920    -3.3890 ca         1 SBR      -0.104800
     26 C26          2.0400    -1.2500    -0.7200 c3         1 SBR      -0.010100
     27 HC11        -0.3610     0.8850     0.5100 h1         1 SBR       0.039200
     28 HC12        -0.3610    -0.8840     0.5120 h1         1 SBR       0.039200
     29 HC2          1.8910     0.8840    -0.5110 hc         1 SBR       0.042700
     30 HC31         1.6780     0.8850     1.9530 h1         1 SBR       0.037700
     31 HC32         1.6780    -0.8840     1.9530 h1         1 SBR       0.037700
     32 HN4          4.0050     0.0540     0.5770 hn         1 SBR       0.182500
     33 HC8          5.8190     0.0030     4.7570 ha         1 SBR       0.142500
     34 HC9          8.2820     0.0020     4.7450 ha         1 SBR       0.128500
     35 H11          8.2810    -0.0020     0.4740 ha         1 SBR       0.128500
     36 H12          5.8190    -0.0050     0.4630 ha         1 SBR       0.142500
     37 HN61        10.3350    -2.0370     1.7940 hn         1 SBR       0.314133
     38 HN62        11.6830    -1.6130     2.6150 hn         1 SBR       0.314133
     39 H18         -0.6300    -2.1400    -1.7720 h4         1 SBR       0.140000
     40 H19         -1.4670    -1.4460    -4.1420 ha         1 SBR       0.132000
     41 H21         -0.3200     2.8360    -0.9010 ha         1 SBR       0.096000
     42 H22         -0.9360     4.4560    -2.6430 ha         1 SBR       0.102000
     43 H23         -1.7170     3.6870    -4.8470 ha         1 SBR       0.107000
     44 H24         -1.8900     1.2970    -5.3360 ha         1 SBR       0.104000
     45 H261         1.4710    -2.1120    -0.3940 hc         1 SBR       0.012367
     46 H262         1.9230    -1.1230    -1.7890 hc         1 SBR       0.012367
     47 H263         3.0870    -1.3990    -0.4860 hc         1 SBR       0.012367
     48 HP63        10.3290    -2.0380     3.4270 hn         1 SBR       0.314133
@<TRIPOS>BOND
     1     1     2 1   
     2     1    17 1   
     3     1    27 1   
     4     1    28 1   
     5     2     3 1   
     6     2    26 1   
     7     2    29 1   
     8     3     4 1   
     9     3    30 1   
    10     3    31 1   
    11     4     5 1   
    12     4    32 1   
    13     5     6 2   
    14     5     7 1   
    15     7     8 ar  
    16     7    12 ar  
    17     8     9 ar  
    18     8    33 1   
    19     9    10 ar  
    20     9    34 1   
    21    10    11 ar  
    22    10    13 1   
    23    11    12 ar  
    24    11    35 1   
    25    12    36 1   
    26    13    14 2   
    27    13    15 2   
    28    13    16 1   
    29    16    37 1   
    30    16    38 1   
    31    16    48 1   
    32    17    18 1   
    33    17    20 1   
    34    18    19 2   
    35    18    39 1   
    36    19    25 1   
    37    19    40 1   
    38    20    21 ar  
    39    20    25 ar  
    40    21    22 ar  
    41    21    41 1   
    42    22    23 ar  
    43    22    42 1   
    44    23    24 ar  
    45    23    43 1   
    46    24    25 ar  
    47    24    44 1   
    48    26    45 1   
    49    26    46 1   
    50    26    47 1   
@<TRIPOS>SUBSTRUCTURE
     1 SBR         1 TEMP              0 ****  ****    0 ROOT
