@<TRIPOS>MOLECULE
SBS
   48    50     1     0     0
SMALL
bcc


@<TRIPOS>ATOM
      1 C01          0.0000     0.0000     0.0000 c3         1 SBS      -0.027700
      2 C02          1.5300     0.0000     0.0000 c3         1 SBS      -0.088700
      3 C03          2.0400     0.0000     1.4430 c3         1 SBS       0.052000
      4 N04          3.5040     0.0010     1.4420 ns         1 SBS      -0.173900
      5 C05          4.1780    -0.0000     2.6090 c          1 SBS       0.560700
      6 O06          3.5700     0.0010     3.6620 o          1 SBS      -0.612100
      7 C07          5.6570    -0.0000     2.6090 ca         1 SBS      -0.038600
      8 C08          6.3580     0.0000     3.8160 ca         1 SBS      -0.076500
      9 C09          7.7370    -0.0000     3.8090 ca         1 SBS       0.007000
     10 C10          8.4250    -0.0010     2.6100 ca         1 SBS      -0.222500
     11 C11          7.7360    -0.0010     1.4100 ca         1 SBS       0.007000
     12 C12          6.3570    -0.0060     1.4030 ca         1 SBS      -0.076500
     13 S13         10.1870    -0.0010     2.6100 sy         1 SBS       0.939200
     14 O14         10.5730     0.5250     1.3470 o          1 SBS      -0.494300
     15 O15         10.5730     0.5250     3.8720 o          1 SBS      -0.494300
     16 NP6         10.6830    -1.5810     2.6120 nz         1 SBS      -0.131500
     17 NP7         -0.4890     0.0000    -1.3810 na         1 SBS       0.383600
     18 C18         -0.7510    -1.1210    -2.1210 cc         1 SBS      -0.263100
     19 C19         -1.1840    -0.7710    -3.3420 cd         1 SBS      -0.146200
     20 C20         -0.7570     1.1250    -2.1250 ca         1 SBS      -0.208200
     21 C21         -0.6600     2.4890    -1.8680 ca         1 SBS      -0.122000
     22 C22         -1.0070     3.3960    -2.8450 ca         1 SBS      -0.076000
     23 C23         -1.4470     2.9630    -4.0880 ca         1 SBS      -0.130000
     24 C24         -1.5450     1.6300    -4.3640 ca         1 SBS      -0.035000
     25 C25         -1.2000     0.6930    -3.3880 ca         1 SBS      -0.105800
     26 C26          2.0400     1.2470    -0.7210 c3         1 SBS      -0.020100
     27 HC11        -0.3610     0.8840     0.5110 h1         1 SBS       0.038700
     28 HC12        -0.3610    -0.8850     0.5110 h1         1 SBS       0.038700
     29 HC2          1.8910    -0.8850    -0.5100 hc         1 SBS       0.034700
     30 HC31         1.6780     0.8840     1.9530 h1         1 SBS       0.037200
     31 HC32         1.6790    -0.8850     1.9530 h1         1 SBS       0.037200
     32 HN4          4.0040    -0.0450     0.5760 hn         1 SBS       0.181500
     33 HC8          5.8200     0.0010     4.7560 ha         1 SBS       0.142500
     34 HC9          8.2820    -0.0000     4.7450 ha         1 SBS       0.128500
     35 H11          8.2820    -0.0040     0.4740 ha         1 SBS       0.128500
     36 H12          5.8190    -0.0060     0.4630 ha         1 SBS       0.142500
     37 HN61        11.6830    -1.6170     2.6140 hn         1 SBS       0.313800
     38 HN62        10.3350    -2.0400     1.7940 hn         1 SBS       0.313800
     39 H18         -0.6280    -2.1390    -1.7730 h4         1 SBS       0.139000
     40 H19         -1.4670    -1.4430    -4.1430 ha         1 SBS       0.132000
     41 H21         -0.3180     2.8370    -0.9000 ha         1 SBS       0.100000
     42 H22         -0.9350     4.4570    -2.6410 ha         1 SBS       0.102000
     43 H23         -1.7160     3.6900    -4.8460 ha         1 SBS       0.107000
     44 H24         -1.8900     1.3000    -5.3370 ha         1 SBS       0.104000
     45 H261         3.1210     1.2760    -0.6730 hc         1 SBS       0.018367
     46 H262         1.6330     2.1310    -0.2450 hc         1 SBS       0.018367
     47 H263         1.7250     1.2190    -1.7580 hc         1 SBS       0.018367
     48 HP63        10.3240    -2.0420     3.4240 hn         1 SBS       0.313800
@<TRIPOS>BOND
     1     1     2 1   
     2     1    17 1   
     3     1    27 1   
     4     1    28 1   
     5     2     3 1   
     6     2    26 1   
     7     2    29 1   
     8     3     4 1   
     9     3    30 1   
    10     3    31 1   
    11     4     5 1   
    12     4    32 1   
    13     5     6 2   
    14     5     7 1   
    15     7     8 ar  
    16     7    12 ar  
    17     8     9 ar  
    18     8    33 1   
    19     9    10 ar  
    20     9    34 1   
    21    10    11 ar  
    22    10    13 1   
    23    11    12 ar  
    24    11    35 1   
    25    12    36 1   
    26    13    14 2   
    27    13    15 2   
    28    13    16 1   
    29    16    37 1   
    30    16    38 1   
    31    16    48 1   
    32    17    18 1   
    33    17    20 1   
    34    18    19 2   
    35    18    39 1   
    36    19    25 1   
    37    19    40 1   
    38    20    21 ar  
    39    20    25 ar  
    40    21    22 ar  
    41    21    41 1   
    42    22    23 ar  
    43    22    42 1   
    44    23    24 ar  
    45    23    43 1   
    46    24    25 ar  
    47    24    44 1   
    48    26    45 1   
    49    26    46 1   
    50    26    47 1   
@<TRIPOS>SUBSTRUCTURE
     1 SBS         1 TEMP              0 ****  ****    0 ROOT
