@<TRIPOS>MOLECULE
molecule
   15    14     1     0     0
SMALL
bcc


@<TRIPOS>ATOM
      1 C1           0.0000     0.0000     0.0000 c3         1 SBT      -0.125100
      2 C2           1.5300     0.0000     0.0000 c3         1 SBT       0.144100
      3 C3           2.0400     0.0000     1.4410 c3         1 SBT      -0.078400
      4 C4           3.5700    -0.0000     1.4410 c3         1 SBT      -0.092100
      5 OH           2.0060    -1.1650    -0.6750 oh         1 SBT      -0.607800
      6 H11         -0.3610     0.6850    -0.7580 hc         1 SBT       0.041700
      7 H12         -0.3610     0.3130     0.9720 hc         1 SBT       0.041700
      8 H13         -0.3610    -0.9990    -0.2150 hc         1 SBT       0.041700
      9 H2           1.8910     0.8850    -0.5100 h1         1 SBT       0.027700
     10 H31          1.6790    -0.8850     1.9520 hc         1 SBT       0.049200
     11 H32          1.6790     0.8840     1.9520 hc         1 SBT       0.049200
     12 H41          3.9310     0.9270     1.0120 hc         1 SBT       0.036367
     13 H42          3.9310    -0.8350     0.8530 hc         1 SBT       0.036367
     14 H43          3.9310    -0.0920     2.4580 hc         1 SBT       0.036367
     15 HO           2.0710    -0.9890    -1.5990 ho         1 SBT       0.400000
@<TRIPOS>BOND
     1     1     2 1
     2     1     6 1
     3     1     7 1
     4     1     8 1
     5     2     3 1
     6     2     5 1
     7     2     9 1
     8     3     4 1
     9     3    10 1
    10     3    11 1
    11     4    12 1
    12     4    13 1
    13     4    14 1
    14     5    15 1
@<TRIPOS>SUBSTRUCTURE
     1 SBT         1 TEMP              0 ****  ****    0 ROOT
