@<TRIPOS>MOLECULE
SBT
   15    14     1     0     0
SMALL
bcc


@<TRIPOS>ATOM
      1 C1          0.0620    0.0970   -0.0610 c3        1 SBT     -0.131100
      2 C2          1.5770    0.0040   -0.0100 c3        1 SBT      0.138100
      3 C3          2.0720   -0.1570    1.4250 c3        1 SBT     -0.074400
      4 C4          3.5620    0.0390    1.5230 c3        1 SBT     -0.092100
      5 OH          2.0400   -1.1340   -0.7310 oh        1 SBT     -0.600800
      6 H11        -0.2850    0.1970   -1.1180 hc        1 SBT      0.042033
      7 H12        -0.3970   -0.8210    0.3760 hc        1 SBT      0.042033
      8 H13        -0.2870    0.9860    0.5160 hc        1 SBT      0.042033
      9 H2          2.0280    0.9310   -0.4670 h1        1 SBT      0.030700
     10 H31         1.7990   -1.1820    1.7880 hc        1 SBT      0.048200
     11 H32         1.5410    0.5920    2.0680 hc        1 SBT      0.048200
     12 H41         4.0880   -0.6750    0.8440 hc        1 SBT      0.036700
     13 H42         3.9080   -0.1410    2.5700 hc        1 SBT      0.036700
     14 H43         3.8460    1.0780    1.2310 hc        1 SBT      0.036700
     15 HO          1.6750   -1.0660   -1.6210 ho        1 SBT      0.397000
@<TRIPOS>BOND
     1    1    2 1   
     2    1    6 1   
     3    1    7 1   
     4    1    8 1   
     5    2    3 1   
     6    2    5 1   
     7    2    9 1   
     8    3    4 1   
     9    3   10 1   
    10    3   11 1   
    11    4   12 1   
    12    4   13 1   
    13    4   14 1   
    14    5   15 1   
@<TRIPOS>SUBSTRUCTURE
     1 SBT         1 TEMP              0 ****  ****    0 ROOT
