@<TRIPOS>MOLECULE
molecule
   36    37     1     0     0
SMALL
bcc


@<TRIPOS>ATOM
      1 O04          0.0000     0.0000     0.0000 o          1 SBW      -0.515800
      2 S01          1.4210     0.0000     0.0000 sy         1 SBW       1.225200
      3 O03          2.1980     0.0000     1.1900 o          1 SBW      -0.515800
      4 N02          1.8890    -1.3330    -0.8640 nz         1 SBW      -0.806500
      5 C16          1.9190     1.4190    -0.9190 ca         1 SBW      -0.333500
      6 C15          1.0580     1.9740    -1.8490 ca         1 SBW      -0.034500
      7 C14          1.4410     3.0840    -2.5720 ca         1 SBW      -0.097500
      8 C17          3.1670     1.9770    -0.7030 ca         1 SBW      -0.034500
      9 C18          3.5610     3.0880    -1.4180 ca         1 SBW      -0.097500
     10 C13          2.7010     3.6490    -2.3630 ca         1 SBW      -0.036600
     11 C12          3.1180     4.8400    -3.1330 c          1 SBW       0.648700
     12 O02          4.2140     5.3310    -2.9450 o          1 SBW      -0.571100
     13 N01          2.2840     5.3790    -4.0440 ns         1 SBW      -0.564900
     14 C11          2.6980     6.5590    -4.8080 c3         1 SBW       0.162300
     15 C09          1.5930     6.9600    -5.7500 ca         1 SBW      -0.122300
     16 C08          0.6220     7.8540    -5.3370 ca         1 SBW      -0.120000
     17 C07         -0.3930     8.2240    -6.1990 ca         1 SBW      -0.113000
     18 C06         -0.4400     7.7010    -7.4780 ca         1 SBW      -0.133000
     19 C05          0.5330     6.8040    -7.8950 ca         1 SBW       0.108100
     20 O01          0.4890     6.2880    -9.1510 oh         1 SBW      -0.520100
     21 C10          1.5530     6.4390    -7.0290 ca         1 SBW      -0.143000
     22 H1           1.6230    -2.1610    -0.3690 hn         1 SBW       0.492800
     23 H2           2.8820    -1.3200    -0.9850 hn         1 SBW       0.492800
     24 H3           0.0810     1.5350    -2.0110 ha         1 SBW       0.159500
     25 H4           0.7670     3.5160    -3.3010 ha         1 SBW       0.177000
     26 H5           3.8340     1.5400     0.0300 ha         1 SBW       0.159500
     27 H6           4.5400     3.5220    -1.2490 ha         1 SBW       0.177000
     28 H7           1.3940     4.9570    -4.2190 hn         1 SBW       0.318500
     29 H8           2.9060     7.3760    -4.1260 h1         1 SBW       0.070200
     30 H9           3.5910     6.3270    -5.3760 h1         1 SBW       0.070200
     31 H10          0.6570     8.2650    -4.3350 ha         1 SBW       0.138000
     32 H11         -1.1520     8.9240    -5.8720 ha         1 SBW       0.145000
     33 H12         -1.2360     7.9910    -8.1530 ha         1 SBW       0.152000
     34 H13          1.0090     6.8220    -9.7280 ho         1 SBW       0.429000
     35 H14          2.3140     5.7380    -7.3530 ha         1 SBW       0.143000
     36 H023         1.4490    -1.3190    -1.7630 hn         1 SBW       0.492800
@<TRIPOS>BOND
     1    14    13 1
     2    14    15 1
     3    21    15 ar
     4    21    19 ar
     5    20    19 1
     6    13    11 1
     7    15    16 ar
     8    12    11 2
     9    19    18 ar
    10    11    10 1
    11    10     9 ar
    12    10     7 ar
    13    16    17 ar
    14     9     8 ar
    15     7     6 ar
    16    18    17 ar
    17     6     5 ar
    18     8     5 ar
    19     5     2 1
    20     4     2 1
    21     3     2 2
    22     2     1 2
    23     4    22 1
    24     4    23 1
    25     6    24 1
    26     7    25 1
    27     8    26 1
    28     9    27 1
    29    13    28 1
    30    14    29 1
    31    14    30 1
    32    16    31 1
    33    17    32 1
    34    18    33 1
    35    20    34 1
    36    21    35 1
    37    36     4 1
@<TRIPOS>SUBSTRUCTURE
     1 SBW         1 TEMP              0 ****  ****    0 ROOT
