@<TRIPOS>MOLECULE
SBW
   36    37     1     0     0
SMALL
bcc


@<TRIPOS>ATOM
      1 O04          0.0000     0.0000     0.0000 o          1 SBW      -0.494300
      2 S01          1.4210     0.0000     0.0000 sy         1 SBW       0.934200
      3 O03          2.1980     0.0000     1.1900 o          1 SBW      -0.494300
      4 N02          1.8890    -1.3330    -0.8640 nz         1 SBW      -0.130500
      5 C16          1.9190     1.4190    -0.9190 ca         1 SBW      -0.220500
      6 C15          1.0580     1.9740    -1.8490 ca         1 SBW       0.006500
      7 C14          1.4410     3.0840    -2.5720 ca         1 SBW      -0.076000
      8 C17          3.1670     1.9770    -0.7030 ca         1 SBW       0.006500
      9 C18          3.5610     3.0880    -1.4180 ca         1 SBW      -0.076000
     10 C13          2.7010     3.6490    -2.3630 ca         1 SBW      -0.037600
     11 C12          3.1180     4.8400    -3.1330 c          1 SBW       0.558700
     12 O02          4.2140     5.3310    -2.9450 o          1 SBW      -0.615100
     13 N01          2.2840     5.3790    -4.0440 ns         1 SBW      -0.167900
     14 C11          2.6980     6.5590    -4.8080 c3         1 SBW       0.112300
     15 C09          1.5930     6.9600    -5.7500 ca         1 SBW      -0.126300
     16 C08          0.6220     7.8540    -5.3370 ca         1 SBW      -0.100000
     17 C07         -0.3930     8.2240    -6.1990 ca         1 SBW      -0.075000
     18 C06         -0.4400     7.7010    -7.4780 ca         1 SBW      -0.117000
     19 C05          0.5330     6.8040    -7.8950 ca         1 SBW       0.130100
     20 O01          0.4890     6.2880    -9.1510 oh         1 SBW      -0.500100
     21 C10          1.5530     6.4390    -7.0290 ca         1 SBW      -0.128000
     22 H1           1.6230    -2.1610    -0.3690 hn         1 SBW       0.313467
     23 H2           2.8820    -1.3200    -0.9850 hn         1 SBW       0.313467
     24 H3           0.0810     1.5350    -2.0110 ha         1 SBW       0.128000
     25 H4           0.7670     3.5160    -3.3010 ha         1 SBW       0.143500
     26 H5           3.8340     1.5400     0.0300 ha         1 SBW       0.128000
     27 H6           4.5400     3.5220    -1.2490 ha         1 SBW       0.143500
     28 H7           1.3940     4.9570    -4.2190 hn         1 SBW       0.178500
     29 H8           2.9060     7.3760    -4.1260 h1         1 SBW       0.037700
     30 H9           3.5910     6.3270    -5.3760 h1         1 SBW       0.037700
     31 H10          0.6570     8.2650    -4.3350 ha         1 SBW       0.110000
     32 H11         -1.1520     8.9240    -5.8720 ha         1 SBW       0.112000
     33 H12         -1.2360     7.9910    -8.1530 ha         1 SBW       0.122000
     34 H13          1.0090     6.8220    -9.7280 ho         1 SBW       0.412000
     35 H14          2.3140     5.7380    -7.3530 ha         1 SBW       0.117000
     36 H023         1.4490    -1.3190    -1.7630 hn         1 SBW       0.313467
@<TRIPOS>BOND
     1     1     2 2   
     2     2     3 2   
     3     2     4 1   
     4     2     5 1   
     5     4    22 1   
     6     4    23 1   
     7     4    36 1   
     8     5     6 ar  
     9     5     8 ar  
    10     6     7 ar  
    11     6    24 1   
    12     7    10 ar  
    13     7    25 1   
    14     8     9 ar  
    15     8    26 1   
    16     9    10 ar  
    17     9    27 1   
    18    10    11 1   
    19    11    12 2   
    20    11    13 1   
    21    13    14 1   
    22    13    28 1   
    23    14    15 1   
    24    14    29 1   
    25    14    30 1   
    26    15    16 ar  
    27    15    21 ar  
    28    16    17 ar  
    29    16    31 1   
    30    17    18 ar  
    31    17    32 1   
    32    18    19 ar  
    33    18    33 1   
    34    19    20 1   
    35    19    21 ar  
    36    20    34 1   
    37    21    35 1   
@<TRIPOS>SUBSTRUCTURE
     1 SBW         1 TEMP              0 ****  ****    0 ROOT
