@<TRIPOS>MOLECULE
SBX
   74    76     1     0     0
SMALL
bcc


@<TRIPOS>ATOM
      1 C1           0.0000     0.0000     0.0000 c          1 SBX       0.696100
      2 C2           1.5070     0.0000     0.0000 c3         1 SBX      -0.000300
      3 C3           2.0190     0.0000     1.4400 c3         1 SBX      -0.034400
      4 C4           3.5440     0.1370     1.4360 c3         1 SBX      -0.024400
      5 C5           3.9370     1.4620     0.7820 c3         1 SBX      -0.045400
      6 C6           3.4480     1.4760    -0.6700 c3         1 SBX       0.049000
      7 N7           2.0050     1.2000    -0.6850 n          1 SBX      -0.159800
      8 O1          -0.6030     1.0450     0.0520 o          1 SBX      -0.565000
      9 O2          -0.6700    -1.1600    -0.0590 os         1 SBX      -0.406900
     10 C8           1.1530     2.0370    -1.3100 c          1 SBX       0.518100
     11 O3           0.1700     1.5960    -1.8670 o          1 SBX      -0.582100
     12 C9           1.4200     3.5030    -1.3190 c          1 SBX       0.562100
     13 O4           2.3350     3.9540    -0.6720 o          1 SBX      -0.542100
     14 C10          0.5480     4.4230    -2.1340 c3         1 SBX      -0.145000
     15 C11          1.0310     5.8640    -1.9680 c3         1 SBX      -0.017400
     16 C12          0.1470     6.7980    -2.7950 c3         1 SBX      -0.010100
     17 C13         -0.8990     4.3130    -1.6510 c3         1 SBX      -0.001100
     18 C14          0.6250     4.0260    -3.6080 c3         1 SBX      -0.001100
     19 C15         -2.1210    -1.1600    -0.0590 c3         1 SBX       0.198100
     20 C16         -2.6320    -2.4440     0.5980 c3         1 SBX      -0.043400
     21 C17         -2.1220    -2.5170     2.0390 c3         1 SBX       0.027900
     22 C18         -2.6250    -3.7810     2.6850 ca         1 SBX      -0.090300
     23 C19         -1.8790    -4.9420     2.6080 ca         1 SBX      -0.099000
     24 C20         -2.3390    -6.1020     3.2020 ca         1 SBX      -0.098500
     25 C21         -3.5480    -6.1020     3.8740 ca         1 SBX      -0.105000
     26 C22         -4.2940    -4.9410     3.9530 ca         1 SBX      -0.098500
     27 C23         -3.8310    -3.7800     3.3630 ca         1 SBX      -0.099000
     28 C24         -2.6310    -1.0870    -1.4990 c3         1 SBX      -0.069700
     29 C25         -2.1210     0.1960    -2.1560 c3         1 SBX      -0.050900
     30 C26         -2.6310     0.2690    -3.5970 c3         1 SBX      -0.018900
     31 C27         -2.1210    -0.9430    -4.3810 c3         1 SBX      -0.025400
     32 C28         -2.6310    -2.2250    -3.7230 c3         1 SBX      -0.018900
     33 C29         -2.1220    -2.2990    -2.2830 c3         1 SBX      -0.050900
     34 H2           1.8730    -0.8830    -0.5110 h1         1 SBX       0.042700
     35 H31          1.7420    -0.9300     1.9200 hc         1 SBX       0.031200
     36 H32          1.5840     0.8340     1.9770 hc         1 SBX       0.031200
     37 H41          3.9770    -0.6830     0.8770 hc         1 SBX       0.018200
     38 H42          3.9090     0.1170     2.4560 hc         1 SBX       0.018200
     39 H51          5.0150     1.5670     0.8000 hc         1 SBX       0.029700
     40 H52          3.4800     2.2820     1.3240 hc         1 SBX       0.029700
     41 H61          3.9690     0.7120    -1.2340 h1         1 SBX       0.034700
     42 H62          3.6360     2.4500    -1.1060 h1         1 SBX       0.034700
     43 H111         0.9760     6.1460    -0.9240 hc         1 SBX       0.023700
     44 H112         2.0570     5.9430    -2.3100 hc         1 SBX       0.023700
     45 H121        -0.2400     6.2630    -3.6540 hc         1 SBX       0.006700
     46 H122        -0.6780     7.1480    -2.1860 hc         1 SBX       0.006700
     47 H123         0.7310     7.6460    -3.1320 hc         1 SBX       0.006700
     48 H131        -0.9130     3.9700    -0.6240 hc         1 SBX       0.017700
     49 H132        -1.3760     5.2840    -1.7140 hc         1 SBX       0.017700
     50 H133        -1.4350     3.6070    -2.2740 hc         1 SBX       0.017700
     51 H141         0.8380     2.9660    -3.6860 hc         1 SBX       0.017700
     52 H142         1.4140     4.5890    -4.0930 hc         1 SBX       0.017700
     53 H143        -0.3210     4.2400    -4.0900 hc         1 SBX       0.017700
     54 H15         -2.4830    -0.3030     0.4960 h1         1 SBX       0.036700
     55 H161        -2.2700    -3.3020     0.0440 hc         1 SBX       0.034200
     56 H162        -3.7150    -2.4440     0.5980 hc         1 SBX       0.034200
     57 H171        -1.0390    -2.5170     2.0390 hc         1 SBX       0.021700
     58 H172        -2.4840    -1.6590     2.5930 hc         1 SBX       0.021700
     59 H19         -0.9320    -4.9420     2.0810 ha         1 SBX       0.105500
     60 H20         -1.7540    -7.0110     3.1400 ha         1 SBX       0.102000
     61 H21         -3.9100    -7.0110     4.3380 ha         1 SBX       0.102000
     62 H22         -5.2400    -4.9400     4.4810 ha         1 SBX       0.102000
     63 H23         -4.4160    -2.8700     3.4250 ha         1 SBX       0.105500
     64 H24         -3.7150    -1.0860    -1.5040 hc         1 SBX       0.035700
     65 H251        -2.4850     1.0530    -1.6020 hc         1 SBX       0.035950
     66 H252        -1.0380     0.1940    -2.1570 hc         1 SBX       0.035950
     67 H261        -2.2660     1.1770    -4.0620 hc         1 SBX       0.010200
     68 H262        -3.7140     0.2670    -3.5960 hc         1 SBX       0.010200
     69 H271        -1.0380    -0.9430    -4.3790 hc         1 SBX       0.011700
     70 H272        -2.4860    -0.8920    -5.4000 hc         1 SBX       0.011700
     71 H281        -3.7150    -2.2230    -3.7210 hc         1 SBX       0.010200
     72 H282        -2.2680    -3.0830    -4.2770 hc         1 SBX       0.010200
     73 H291        -1.0390    -2.2980    -2.2840 hc         1 SBX       0.035950
     74 H292        -2.4870    -3.2070    -1.8180 hc         1 SBX       0.035950
@<TRIPOS>BOND
     1     1     2 1   
     2     1     8 2   
     3     1     9 1   
     4     2     3 1   
     5     2     7 1   
     6     2    34 1   
     7     3     4 1   
     8     3    35 1   
     9     3    36 1   
    10     4     5 1   
    11     4    37 1   
    12     4    38 1   
    13     5     6 1   
    14     5    39 1   
    15     5    40 1   
    16     6     7 1   
    17     6    41 1   
    18     6    42 1   
    19     7    10 1   
    20     9    19 1   
    21    10    11 2   
    22    10    12 1   
    23    12    13 2   
    24    12    14 1   
    25    14    15 1   
    26    14    17 1   
    27    14    18 1   
    28    15    16 1   
    29    15    43 1   
    30    15    44 1   
    31    16    45 1   
    32    16    46 1   
    33    16    47 1   
    34    17    48 1   
    35    17    49 1   
    36    17    50 1   
    37    18    51 1   
    38    18    52 1   
    39    18    53 1   
    40    19    20 1   
    41    19    28 1   
    42    19    54 1   
    43    20    21 1   
    44    20    55 1   
    45    20    56 1   
    46    21    22 1   
    47    21    57 1   
    48    21    58 1   
    49    22    23 ar  
    50    22    27 ar  
    51    23    24 ar  
    52    23    59 1   
    53    24    25 ar  
    54    24    60 1   
    55    25    26 ar  
    56    25    61 1   
    57    26    27 ar  
    58    26    62 1   
    59    27    63 1   
    60    28    29 1   
    61    28    33 1   
    62    28    64 1   
    63    29    30 1   
    64    29    65 1   
    65    29    66 1   
    66    30    31 1   
    67    30    67 1   
    68    30    68 1   
    69    31    32 1   
    70    31    69 1   
    71    31    70 1   
    72    32    33 1   
    73    32    71 1   
    74    32    72 1   
    75    33    73 1   
    76    33    74 1   
@<TRIPOS>SUBSTRUCTURE
     1 SBX         1 TEMP              0 ****  ****    0 ROOT
