@<TRIPOS>MOLECULE
SBY
   59    58     1     0     0
SMALL
bcc


@<TRIPOS>ATOM
      1 O22          0.0000     0.0000     0.0000 o          1 SBY      -0.637867
      2 S19          1.4550     0.0000     0.0000 s6         1 SBY       0.958800
      3 O20          1.9550     0.0000     1.3660 o          1 SBY      -0.637867
      4 O21          1.9550    -1.1630    -0.7170 o          1 SBY      -0.637867
      5 C18          2.0400     1.5000    -0.8370 c3         1 SBY      -0.062600
      6 H181         1.6720     2.3730    -0.3110 h1         1 SBY       0.050700
      7 H182         3.1230     1.5110    -0.8430 h1         1 SBY       0.050700
      8 C17          1.5220     1.5150    -2.2760 c3         1 SBY      -0.006400
      9 H171         1.8890     0.6420    -2.8010 hc         1 SBY       0.045200
     10 H172         0.4380     1.5040    -2.2700 hc         1 SBY       0.045200
     11 C16          2.0140     2.7800    -2.9820 c3         1 SBY      -0.030200
     12 H161         1.6470     3.6530    -2.4570 hx         1 SBY       0.069700
     13 H162         3.0980     2.7910    -2.9880 hx         1 SBY       0.069700
     14 N13          1.5170     2.7950    -4.3650 n4         1 SBY       0.055200
     15 C15          2.0150     1.6100    -5.0760 c3         1 SBY      -0.004900
     16 H153         1.7260     1.6670    -6.1190 hx         1 SBY       0.076700
     17 H152         3.0950     1.5710    -5.0030 hx         1 SBY       0.076700
     18 H151         1.5900     0.7170    -4.6330 hx         1 SBY       0.076700
     19 C14          0.0480     2.7790    -4.3560 c3         1 SBY      -0.004900
     20 H143        -0.3210     2.9090    -5.3660 hx         1 SBY       0.076700
     21 H142        -0.3010     1.8320    -3.9630 hx         1 SBY       0.076700
     22 H141        -0.3180     3.5850    -3.7310 hx         1 SBY       0.076700
     23 C12          1.9910     4.0090    -5.0420 c3         1 SBY      -0.013200
     24 H121         1.6230     4.8820    -4.5160 hx         1 SBY       0.073700
     25 H122         3.0740     4.0200    -5.0470 hx         1 SBY       0.073700
     26 C11          1.4730     4.0250    -6.4820 c3         1 SBY      -0.057400
     27 H111         1.8390     3.1510    -7.0070 hc         1 SBY       0.037700
     28 H112         0.3890     4.0140    -6.4760 hc         1 SBY       0.037700
     29 C10          1.9660     5.2880    -7.1870 c3         1 SBY      -0.019400
     30 H101         3.0490     5.2980    -7.1940 hc         1 SBY       0.024700
     31 H102         1.6000     6.1620    -6.6620 hc         1 SBY       0.024700
     32 C9           1.4470     5.3050    -8.6270 c3         1 SBY      -0.026400
     33 H91          1.8130     4.4310    -9.1530 hc         1 SBY       0.018700
     34 H92          0.3640     5.2940    -8.6210 hc         1 SBY       0.018700
     35 C8           1.9410     6.5690    -9.3320 c3         1 SBY      -0.027400
     36 H81          3.0250     6.5790    -9.3390 hc         1 SBY       0.017700
     37 H82          1.5750     7.4420    -8.8070 hc         1 SBY       0.017700
     38 C7           1.4220     6.5840   -10.7730 c3         1 SBY      -0.028400
     39 H71          1.7880     5.7110   -11.2980 hc         1 SBY       0.016700
     40 H72          0.3390     6.5740   -10.7660 hc         1 SBY       0.016700
     41 C6           1.9160     7.8490   -11.4790 c3         1 SBY      -0.028400
     42 H61          2.9990     7.8590   -11.4850 hc         1 SBY       0.015700
     43 H62          1.5500     8.7230   -10.9530 hc         1 SBY       0.015700
     44 C5           1.3970     7.8650   -12.9180 c3         1 SBY      -0.028400
     45 H51          0.3140     7.8550   -12.9110 hc         1 SBY       0.015700
     46 H52          1.7630     6.9910   -13.4430 hc         1 SBY       0.015700
     47 C4           1.8910     9.1290   -13.6240 c3         1 SBY      -0.029400
     48 H41          2.9740     9.1390   -13.6310 hc         1 SBY       0.014700
     49 H42          1.5250    10.0030   -13.0990 hc         1 SBY       0.014700
     50 C3           1.3720     9.1450   -15.0630 c3         1 SBY      -0.029400
     51 H31          0.2890     9.1350   -15.0570 hc         1 SBY       0.014700
     52 H32          1.7380     8.2710   -15.5890 hc         1 SBY       0.014700
     53 C2           1.8660    10.4100   -15.7690 c3         1 SBY      -0.028400
     54 H21          2.9490    10.4200   -15.7760 hc         1 SBY       0.012700
     55 H22          1.5000    11.2830   -15.2440 hc         1 SBY       0.012700
     56 C1           1.3470    10.4260   -17.2080 c3         1 SBY       0.006900
     57 H13          1.6970    11.3210   -17.7080 hc         1 SBY       0.000700
     58 H12          0.2640    10.4150   -17.2020 hc         1 SBY       0.000700
     59 H11          1.7140     9.5520   -17.7340 hc         1 SBY       0.000700
@<TRIPOS>BOND
     1     1     2 1   
     2     2     3 1   
     3     2     4 1   
     4     2     5 1   
     5     5     6 1   
     6     5     7 1   
     7     5     8 1   
     8     8     9 1   
     9     8    10 1   
    10     8    11 1   
    11    11    12 1   
    12    11    13 1   
    13    11    14 1   
    14    14    15 1   
    15    14    19 1   
    16    14    23 1   
    17    15    16 1   
    18    15    17 1   
    19    15    18 1   
    20    19    20 1   
    21    19    21 1   
    22    19    22 1   
    23    23    24 1   
    24    23    25 1   
    25    23    26 1   
    26    26    27 1   
    27    26    28 1   
    28    26    29 1   
    29    29    30 1   
    30    29    31 1   
    31    29    32 1   
    32    32    33 1   
    33    32    34 1   
    34    32    35 1   
    35    35    36 1   
    36    35    37 1   
    37    35    38 1   
    38    38    39 1   
    39    38    40 1   
    40    38    41 1   
    41    41    42 1   
    42    41    43 1   
    43    41    44 1   
    44    44    45 1   
    45    44    46 1   
    46    44    47 1   
    47    47    48 1   
    48    47    49 1   
    49    47    50 1   
    50    50    51 1   
    51    50    52 1   
    52    50    53 1   
    53    53    54 1   
    54    53    55 1   
    55    53    56 1   
    56    56    57 1   
    57    56    58 1   
    58    56    59 1   
@<TRIPOS>SUBSTRUCTURE
     1 SBY         1 TEMP              0 ****  ****    0 ROOT
