@<TRIPOS>MOLECULE
molecule
   59    58     1     0     0
SMALL
bcc


@<TRIPOS>ATOM
      1 O22          0.0000     0.0000     0.0000 o          1 SBY      -0.684200
      2 S19          1.4550     0.0000     0.0000 s6         1 SBY       1.240800
      3 O20          1.9550     0.0000     1.3660 o          1 SBY      -0.684200
      4 O21          1.9550    -1.1630    -0.7170 o          1 SBY      -0.684200
      5 C18          2.0400     1.5000    -0.8370 c3         1 SBY      -0.254600
      6 H181         1.6720     2.3730    -0.3110 h1         1 SBY       0.076700
      7 H182         3.1230     1.5110    -0.8430 h1         1 SBY       0.076700
      8 C17          1.5220     1.5150    -2.2760 c3         1 SBY      -0.069400
      9 H171         1.8890     0.6420    -2.8010 hc         1 SBY       0.068700
     10 H172         0.4380     1.5040    -2.2700 hc         1 SBY       0.068700
     11 C16          2.0140     2.7800    -2.9820 c3         1 SBY       0.099800
     12 H161         1.6470     3.6530    -2.4570 hx         1 SBY       0.092700
     13 H162         3.0980     2.7910    -2.9880 hx         1 SBY       0.092700
     14 N13          1.5170     2.7950    -4.3650 n4         1 SBY      -0.573800
     15 C15          2.0150     1.6100    -5.0760 c3         1 SBY       0.089100
     16 H153         1.7260     1.6670    -6.1190 hx         1 SBY       0.097200
     17 H152         3.0950     1.5710    -5.0030 hx         1 SBY       0.097200
     18 H151         1.5900     0.7170    -4.6330 hx         1 SBY       0.097200
     19 C14          0.0480     2.7790    -4.3560 c3         1 SBY       0.089100
     20 H143        -0.3210     2.9090    -5.3660 hx         1 SBY       0.097200
     21 H142        -0.3010     1.8320    -3.9630 hx         1 SBY       0.097200
     22 H141        -0.3180     3.5850    -3.7310 hx         1 SBY       0.097200
     23 C12          1.9910     4.0090    -5.0420 c3         1 SBY       0.103800
     24 H121         1.6230     4.8820    -4.5160 hx         1 SBY       0.095700
     25 H122         3.0740     4.0200    -5.0470 hx         1 SBY       0.095700
     26 C11          1.4730     4.0250    -6.4820 c3         1 SBY      -0.112400
     27 H111         1.8390     3.1510    -7.0070 hc         1 SBY       0.060700
     28 H112         0.3890     4.0140    -6.4760 hc         1 SBY       0.060700
     29 C10          1.9660     5.2880    -7.1870 c3         1 SBY      -0.078400
     30 H101         3.0490     5.2980    -7.1940 hc         1 SBY       0.052700
     31 H102         1.6000     6.1620    -6.6620 hc         1 SBY       0.052700
     32 C9           1.4470     5.3050    -8.6270 c3         1 SBY      -0.080400
     33 H91          1.8130     4.4310    -9.1530 hc         1 SBY       0.046700
     34 H92          0.3640     5.2940    -8.6210 hc         1 SBY       0.046700
     35 C8           1.9410     6.5690    -9.3320 c3         1 SBY      -0.081400
     36 H81          3.0250     6.5790    -9.3390 hc         1 SBY       0.045700
     37 H82          1.5750     7.4420    -8.8070 hc         1 SBY       0.045700
     38 C7           1.4220     6.5840   -10.7730 c3         1 SBY      -0.081400
     39 H71          1.7880     5.7110   -11.2980 hc         1 SBY       0.043700
     40 H72          0.3390     6.5740   -10.7660 hc         1 SBY       0.043700
     41 C6           1.9160     7.8490   -11.4790 c3         1 SBY      -0.081400
     42 H61          2.9990     7.8590   -11.4850 hc         1 SBY       0.042700
     43 H62          1.5500     8.7230   -10.9530 hc         1 SBY       0.042700
     44 C5           1.3970     7.8650   -12.9180 c3         1 SBY      -0.081400
     45 H51          0.3140     7.8550   -12.9110 hc         1 SBY       0.041700
     46 H52          1.7630     6.9910   -13.4430 hc         1 SBY       0.041700
     47 C4           1.8910     9.1290   -13.6240 c3         1 SBY      -0.082400
     48 H41          2.9740     9.1390   -13.6310 hc         1 SBY       0.041700
     49 H42          1.5250    10.0030   -13.0990 hc         1 SBY       0.041700
     50 C3           1.3720     9.1450   -15.0630 c3         1 SBY      -0.081400
     51 H31          0.2890     9.1350   -15.0570 hc         1 SBY       0.041700
     52 H32          1.7380     8.2710   -15.5890 hc         1 SBY       0.041700
     53 C2           1.8660    10.4100   -15.7690 c3         1 SBY      -0.084400
     54 H21          2.9490    10.4200   -15.7760 hc         1 SBY       0.040700
     55 H22          1.5000    11.2830   -15.2440 hc         1 SBY       0.040700
     56 C1           1.3470    10.4260   -17.2080 c3         1 SBY      -0.092100
     57 H13          1.6970    11.3210   -17.7080 hc         1 SBY       0.033700
     58 H12          0.2640    10.4150   -17.2020 hc         1 SBY       0.033700
     59 H11          1.7140     9.5520   -17.7340 hc         1 SBY       0.033700
@<TRIPOS>BOND
     1    56    53 1
     2    53    50 1
     3    50    47 1
     4    47    44 1
     5    44    41 1
     6    41    38 1
     7    38    35 1
     8    35    32 1
     9    32    29 1
    10    29    26 1
    11    26    23 1
    12    23    14 1
    13    19    14 1
    14    15    14 1
    15    14    11 1
    16    11     8 1
    17     8     5 1
    18     5     2 1
    19     3     2 1
    20     4     2 1
    21     2     1 1
    22    59    56 1
    23    58    56 1
    24    57    56 1
    25    54    53 1
    26    55    53 1
    27    51    50 1
    28    52    50 1
    29    48    47 1
    30    49    47 1
    31    45    44 1
    32    46    44 1
    33    42    41 1
    34    43    41 1
    35    39    38 1
    36    40    38 1
    37    36    35 1
    38    37    35 1
    39    33    32 1
    40    34    32 1
    41    30    29 1
    42    31    29 1
    43    27    26 1
    44    28    26 1
    45    24    23 1
    46    25    23 1
    47    22    19 1
    48    21    19 1
    49    20    19 1
    50    18    15 1
    51    17    15 1
    52    16    15 1
    53    12    11 1
    54    13    11 1
    55     9     8 1
    56    10     8 1
    57     6     5 1
    58     7     5 1
@<TRIPOS>SUBSTRUCTURE
     1 SBY         1 TEMP              0 ****  ****    0 ROOT
