@<TRIPOS>MOLECULE
molecule
   55    54     1     0     0
SMALL
bcc


@<TRIPOS>ATOM
      1 CAA          0.0000     0.0000     0.0000 c3         1 SC0      -0.093100
      2 CAM          1.5290     0.0000     0.0000 c3         1 SC0      -0.084400
      3 CAS          2.0400     0.0000     1.4420 c3         1 SC0      -0.084400
      4 CAU          3.5700     0.0010     1.4410 c3         1 SC0      -0.077900
      5 CAO          4.0800    -0.0000     2.8840 c3         1 SC0       0.013800
      6 CAI          5.5870     0.0010     2.8830 c2         1 SC0      -0.321200
      7 CAK          6.2420     0.9300     3.5330 c2         1 SC0      -0.002200
      8 CAQ          7.7490     0.9310     3.5340 c3         1 SC0       0.020300
      9 CAW          8.2590     2.2870     3.0400 c3         1 SC0      -0.371400
     10 PAX          7.6510     2.5860     1.3480 p5         1 SC0       1.137200
     11 OAE          8.2920     1.5000     0.3470 o          1 SC0      -0.944833
     12 OAF          6.0450     2.4550     1.3240 o          1 SC0      -0.944833
     13 OAC          8.0410     3.9460     0.9160 o          1 SC0      -0.944833
     14 PAY          7.6510     3.6030     4.1450 p5         1 SC0       1.137200
     15 OAG          8.0780     3.2700     5.6620 o          1 SC0      -0.944833
     16 OAH          8.2920     5.0130     3.7050 o          1 SC0      -0.944833
     17 OAD          6.1760     3.6820     4.0540 o          1 SC0      -0.944833
     18 CAR          9.7890     2.2880     3.0400 c3         1 SC0       0.020300
     19 CAL         10.2900     3.6230     2.5540 c2         1 SC0      -0.002200
     20 CAJ         11.1220     4.3170     3.2900 c2         1 SC0      -0.321200
     21 CAP         11.6240     5.6530     2.8040 c3         1 SC0       0.013800
     22 CAV         11.3290     6.7230     3.8580 c3         1 SC0      -0.077900
     23 CAT         11.8380     8.0790     3.3650 c3         1 SC0      -0.084400
     24 CAN         11.5430     9.1480     4.4180 c3         1 SC0      -0.084400
     25 CAB         12.0510    10.5040     3.9250 c3         1 SC0      -0.093100
     26 HAA1        -0.3610     0.8850     0.5110 hc         1 SC0       0.006033
     27 HAA2        -0.3610    -0.0000    -1.0210 hc         1 SC0       0.006033
     28 HAA3        -0.3610    -0.8840     0.5110 hc         1 SC0       0.006033
     29 HAM1         1.8900    -0.8840    -0.5110 hc         1 SC0       0.042200
     30 HAM2         1.8900     0.8840    -0.5110 hc         1 SC0       0.042200
     31 HAS1         1.6780     0.8840     1.9530 hc         1 SC0       0.013450
     32 HAS2         1.6790    -0.8850     1.9520 hc         1 SC0       0.013450
     33 HAU1         3.9300     0.8860     0.9310 hc         1 SC0       0.072700
     34 HAU2         3.9310    -0.8840     0.9300 hc         1 SC0       0.072700
     35 HAO1         3.7200    -0.8850     3.3940 hc         1 SC0      -0.007300
     36 HAO2         3.7190     0.8840     3.3960 hc         1 SC0      -0.007300
     37 HAI          6.1290    -0.7680     2.3450 ha         1 SC0       0.076000
     38 HAK          5.7000     1.6990     4.0720 ha         1 SC0       0.197000
     39 HAQ1         8.1110     0.1490     2.8770 hc         1 SC0      -0.010800
     40 HAQ2         8.1100     0.7540     4.5400 hc         1 SC0      -0.010800
     41 HAR1        10.1500     1.5060     2.3830 hc         1 SC0      -0.010800
     42 HAR2        10.1510     2.1100     4.0450 hc         1 SC0      -0.010800
     43 HAL          9.9630     4.0090     1.5960 ha         1 SC0       0.197000
     44 HAJ         11.4500     3.9310     4.2480 ha         1 SC0       0.076000
     45 HAP1        12.6930     5.5980     2.6350 hc         1 SC0      -0.007300
     46 HAP2        11.1250     5.9110     1.8780 hc         1 SC0      -0.007300
     47 HAV1        10.2600     6.7780     4.0270 hc         1 SC0       0.072700
     48 HAV2        11.8280     6.4650     4.7840 hc         1 SC0       0.072700
     49 HAT1        12.9070     8.0240     3.1960 hc         1 SC0       0.013450
     50 HAT2        11.3390     8.3370     2.4390 hc         1 SC0       0.013450
     51 HAN1        10.4740     9.2030     4.5880 hc         1 SC0       0.042200
     52 HAN2        12.0420     8.8900     5.3450 hc         1 SC0       0.042200
     53 HAB1        13.1200    10.4490     3.7560 hc         1 SC0       0.006033
     54 HAB2        11.5520    10.7620     2.9990 hc         1 SC0       0.006033
     55 HAB3        11.8420    11.2610     4.6710 hc         1 SC0       0.006033
@<TRIPOS>BOND
     1     1     2 1
     2     1    26 1
     3     1    27 1
     4     1    28 1
     5     2     3 1
     6     2    29 1
     7     2    30 1
     8     3     4 1
     9     3    31 1
    10     3    32 1
    11     4     5 1
    12     4    33 1
    13     4    34 1
    14     5     6 1
    15     5    35 1
    16     5    36 1
    17     6     7 2
    18     6    37 1
    19     7     8 1
    20     7    38 1
    21     8     9 1
    22     8    39 1
    23     8    40 1
    24     9    18 1
    25     9    10 1
    26     9    14 1
    27    10    11 1
    28    10    12 1
    29    10    13 1
    30    14    15 1
    31    14    16 1
    32    14    17 1
    33    18    19 1
    34    18    41 1
    35    18    42 1
    36    19    20 2
    37    19    43 1
    38    20    21 1
    39    20    44 1
    40    21    22 1
    41    21    45 1
    42    21    46 1
    43    22    23 1
    44    22    47 1
    45    22    48 1
    46    23    24 1
    47    23    49 1
    48    23    50 1
    49    24    25 1
    50    24    51 1
    51    24    52 1
    52    25    53 1
    53    25    54 1
    54    25    55 1
@<TRIPOS>SUBSTRUCTURE
     1 SC0         1 TEMP              0 ****  ****    0 ROOT
