@<TRIPOS>MOLECULE
SC0
   55    55     1     0     0
SMALL
bcc


@<TRIPOS>ATOM
      1 CAA         1.4450   -2.5210    0.7100 c3        1 SC0     -0.199000
      2 CAM         1.9270   -1.3620    1.5450 c3        1 SC0     -0.169000
      3 CAS         2.9370   -0.4970    0.8100 c3        1 SC0     -0.139000
      4 CAU         3.4250    0.6670    1.6390 c3        1 SC0     -0.237000
      5 CAO         4.4540    1.5770    0.8770 c3        1 SC0      0.104000
      6 CAI         4.8750    2.7130    1.6140 c2        1 SC0     -0.733000
      7 CAK         6.2370    2.8610    2.1440 c3        1 SC0      0.194000
      8 CAQ         6.3780    3.9170    3.2680 c3        1 SC0     -0.177000
      9 CAW         7.8540    4.1790    3.5140 c3        1 SC0     -1.296000
     10 PAX         8.5460    3.8340    2.0240 p5        1 SC0      2.045000
     11 OAE         9.5000    2.6640    2.0600 o         1 SC0     -0.938500
     12 OAF         7.2330    3.2220    1.1900 os        1 SC0     -0.772000
     13 OAC         9.1130    4.9480    1.1900 o         1 SC0     -0.938500
     14 PAY         7.4230    5.8270    4.6860 p5        1 SC0      1.651500
     15 OAG         6.7860    5.2080    5.9110 o         1 SC0     -0.943167
     16 OAH         8.7440    6.4880    5.0010 o         1 SC0     -0.943167
     17 OAD         6.4840    6.7350    3.9390 o         1 SC0     -0.943167
     18 CAR         8.3850    3.2720    4.5770 c3        1 SC0     -0.058000
     19 CAL         9.6710    3.3870    5.3320 c2        1 SC0     -0.033000
     20 CAJ        10.9370    3.7280    5.0750 c2        1 SC0     -0.219000
     21 CAP        11.5340    4.2550    3.8300 c3        1 SC0     -0.118000
     22 CAV        11.6550    5.7660    3.8720 c3        1 SC0     -0.181000
     23 CAT        11.8640    6.3400    2.4880 c3        1 SC0     -0.172000
     24 CAN        11.8920    7.8540    2.5280 c3        1 SC0     -0.154000
     25 CAB        11.9790    8.4430    1.1430 c3        1 SC0     -0.198000
     26 HAA1        2.3020   -3.1750    0.4180 hc        1 SC0      0.040000
     27 HAA2        0.9550   -2.1550   -0.2240 hc        1 SC0      0.040000
     28 HAA3        0.7050   -3.1440    1.2710 hc        1 SC0      0.040000
     29 HAM1        1.0510   -0.7300    1.8470 hc        1 SC0      0.062500
     30 HAM2        2.3950   -1.7490    2.4870 hc        1 SC0      0.062500
     31 HAS1        2.4660   -0.1140   -0.1340 hc        1 SC0      0.046500
     32 HAS2        3.8110   -1.1320    0.5090 hc        1 SC0      0.046500
     33 HAU1        3.9270    0.2910    2.5630 hc        1 SC0      0.047500
     34 HAU2        2.5570    1.3000    1.9470 hc        1 SC0      0.047500
     35 HAO1        3.8850    1.8150   -0.0880 hc        1 SC0     -0.043500
     36 HAO2        5.3060    0.9010    0.5910 hc        1 SC0     -0.043500
     37 HAI         4.1940    3.5550    1.7290 ha        1 SC0      0.060000
     38 HAK         6.5870    1.8620    2.5700 h1        1 SC0     -0.029000
     39 HAQ1        5.8490    3.5920    4.1960 hc        1 SC0      0.085500
     40 HAQ2        5.8850    4.8670    2.9230 hc        1 SC0      0.085500
     41 HAR1        7.5960    3.2550    5.3940 hc        1 SC0      0.069500
     42 HAR2        8.4380    2.2290    4.1290 hc        1 SC0      0.069500
     43 HAL         9.5050    3.0460    6.3820 ha        1 SC0      0.028000
     44 HAJ        11.6650    3.6560    5.9090 ha        1 SC0      0.015000
     45 HAP1       10.8860    3.9440    2.9490 hc        1 SC0      0.085000
     46 HAP2       12.5520    3.7970    3.6790 hc        1 SC0      0.085000
     47 HAV1       12.5060    6.0680    4.5420 hc        1 SC0      0.100500
     48 HAV2       10.6880    6.1810    4.3060 hc        1 SC0      0.100500
     49 HAT1       12.8220    5.9620    2.0400 hc        1 SC0      0.099500
     50 HAT2       11.0030    5.9970    1.8330 hc        1 SC0      0.099500
     51 HAN1       12.7600    8.2160    3.1420 hc        1 SC0      0.068500
     52 HAN2       10.9480    8.2010    3.0310 hc        1 SC0      0.068500
     53 HAB1       12.9230    8.1320    0.6320 hc        1 SC0      0.044333
     54 HAB2       11.1120    8.0870    0.5340 hc        1 SC0      0.044333
     55 HAB3       11.9610    9.5610    1.1790 hc        1 SC0      0.044333
@<TRIPOS>BOND
     1    1    2 1   
     2    1   26 1   
     3    1   27 1   
     4    1   28 1   
     5    2    3 1   
     6    2   29 1   
     7    2   30 1   
     8    3    4 1   
     9    3   31 1   
    10    3   32 1   
    11    4    5 1   
    12    4   33 1   
    13    4   34 1   
    14    5    6 1   
    15    5   35 1   
    16    5   36 1   
    17    6    7 1   
    18    6   37 1   
    19    7    8 1   
    20    7   12 1   
    21    7   38 1   
    22    8    9 1   
    23    8   39 1   
    24    8   40 1   
    25    9   10 1   
    26    9   14 1   
    27    9   18 1   
    28   10   11 1   
    29   10   12 1   
    30   10   13 1   
    31   14   15 1   
    32   14   16 1   
    33   14   17 1   
    34   18   19 1   
    35   18   41 1   
    36   18   42 1   
    37   19   20 1   
    38   19   43 1   
    39   20   21 1   
    40   20   44 1   
    41   21   22 1   
    42   21   45 1   
    43   21   46 1   
    44   22   23 1   
    45   22   47 1   
    46   22   48 1   
    47   23   24 1   
    48   23   49 1   
    49   23   50 1   
    50   24   25 1   
    51   24   51 1   
    52   24   52 1   
    53   25   53 1   
    54   25   54 1   
    55   25   55 1   
@<TRIPOS>SUBSTRUCTURE
     1 SC0         1 TEMP              0 ****  ****    0 ROOT
