@<TRIPOS>MOLECULE
SC1
   35    35     1     0     0
SMALL
bcc


@<TRIPOS>ATOM
      1 C1          0.2150    0.5160    0.0120 ce        1 SC1     -0.204400
      2 C2          1.5580    0.5750    0.0380 c2        1 SC1     -0.158200
      3 C3          2.3740    0.2180    1.2560 c3        1 SC1      0.257300
      4 C4          1.6490    0.6690    2.5740 c3        1 SC1      0.143100
      5 C5          0.1210    0.9700    2.4710 c3        1 SC1      0.099100
      6 C6         -0.5200    0.2440    1.2830 c3        1 SC1     -0.030200
      7 C7         -0.5710    0.6650   -1.2640 c         1 SC1      0.918800
      8 O1          3.6820    0.6730    1.1610 os        1 SC1     -0.578200
      9 O2          2.2960    1.8140    3.1100 oh        1 SC1     -0.633800
     10 O3         -0.4920    0.5710    3.7170 os        1 SC1     -0.381600
     11 O4         -1.3390   -0.2740   -1.6700 o         1 SC1     -0.923800
     12 O5         -0.4760    1.7130   -1.9910 o         1 SC1     -0.923800
     13 P1          4.9760   -0.3610    0.7300 p5        1 SC1      1.340900
     14 O6          4.5280   -1.7880    0.9500 o         1 SC1     -0.964833
     15 O7          5.2740   -0.0410   -0.7240 o         1 SC1     -0.964833
     16 O8          6.1330    0.0500    1.6240 o         1 SC1     -0.964833
     17 C8         -1.4900    1.4070    4.2690 c3        1 SC1     -0.066400
     18 C9         -2.7260    1.4760    3.4080 c3        1 SC1     -0.098100
     19 C10        -1.0050    2.8270    4.5950 c         1 SC1      0.935600
     20 O9          0.2030    3.0780    4.9270 o         1 SC1     -0.939300
     21 O10        -1.8170    3.8210    4.5490 o         1 SC1     -0.939300
     22 P2         -2.3150    0.1010    5.5960 p5        1 SC1      1.219700
     23 O11        -3.5340    0.8250    6.1440 o         1 SC1     -0.953500
     24 O12        -1.3560   -0.2430    6.7100 o         1 SC1     -0.953500
     25 O13        -2.7580   -1.1030    4.7960 o         1 SC1     -0.953500
     26 H2          2.1360    0.8310   -0.8620 ha        1 SC1      0.108000
     27 H3          2.4010   -0.9200    1.2940 h1        1 SC1      0.029700
     28 H4          1.7750   -0.1750    3.3140 h1        1 SC1      0.012700
     29 H5         -0.0120    2.0790    2.3310 h1        1 SC1      0.043700
     30 H61        -0.5210   -0.8600    1.4890 hc        1 SC1      0.031700
     31 H62        -1.5900    0.5630    1.1940 hc        1 SC1      0.031700
     32 HO2         1.6980    2.1470    3.8050 ho        1 SC1      0.431000
     33 H91        -2.5950    2.1310    2.5110 hc        1 SC1      0.009700
     34 H92        -3.0020    0.4460    3.0710 hc        1 SC1      0.009700
     35 H93        -3.5490    1.8920    4.0410 hc        1 SC1      0.009700
@<TRIPOS>BOND
     1    1    2 2   
     2    1    6 1   
     3    1    7 1   
     4    2    3 1   
     5    2   26 1   
     6    3    4 1   
     7    3    8 1   
     8    3   27 1   
     9    4    5 1   
    10    4    9 1   
    11    4   28 1   
    12    5    6 1   
    13    5   10 1   
    14    5   29 1   
    15    6   30 1   
    16    6   31 1   
    17    7   11 1   
    18    7   12 1   
    19    8   13 1   
    20    9   32 1   
    21   10   17 1   
    22   13   14 1   
    23   13   15 1   
    24   13   16 1   
    25   17   18 1   
    26   17   19 1   
    27   17   22 1   
    28   18   33 1   
    29   18   34 1   
    30   18   35 1   
    31   19   20 1   
    32   19   21 1   
    33   22   23 1   
    34   22   24 1   
    35   22   25 1   
@<TRIPOS>SUBSTRUCTURE
     1 SC1         1 TEMP              0 ****  ****    0 ROOT
