@<TRIPOS>MOLECULE
molecule
   35    35     1     0     0
SMALL
bcc


@<TRIPOS>ATOM
      1 C1           0.0000     0.0000     0.0000 ce         1 SC1      -0.206400
      2 C2           1.3170     0.0000     0.0000 c2         1 SC1      -0.146200
      3 C3           2.1510     0.0000     1.2480 c3         1 SC1       0.192300
      4 C4           1.3050    -0.4190     2.4510 c3         1 SC1       0.157100
      5 C5           0.0130     0.4070     2.4510 c3         1 SC1       0.124100
      6 C6          -0.8350    -0.0090     1.2470 c3         1 SC1      -0.047200
      7 C7          -0.6920     0.0090    -1.2960 c          1 SC1       0.896800
      8 O1           2.6640     1.3140     1.4740 os         1 SC1      -0.487200
      9 O2           2.0360    -0.1860     3.6570 oh         1 SC1      -0.479800
     10 O3          -0.7130     0.1620     3.6580 os         1 SC1      -0.372600
     11 O4          -0.0500     0.0160    -2.3280 o          1 SC1      -0.923800
     12 O5          -2.0390     0.0090    -1.3410 o          1 SC1      -0.923800
     13 P1           4.2700     1.1940     1.4600 p5         1 SC1       1.231900
     14 O6           4.6980     0.1790     2.4490 o          1 SC1      -0.957500
     15 O7           4.7630     0.7550    -0.0080 o          1 SC1      -0.957500
     16 O8           4.9180     2.6190     1.8400 o          1 SC1      -0.957500
     17 C8          -1.2490     1.4180     4.0790 c3         1 SC1      -0.106400
     18 C9          -2.0480     2.0410     2.9330 c3         1 SC1      -0.074100
     19 C10         -0.1240     2.3410     4.4660 c          1 SC1       0.892600
     20 O9           1.0220     1.9630     4.3900 o          1 SC1      -0.869800
     21 O10         -0.3920     3.5840     4.8960 o          1 SC1      -0.869800
     22 P2          -2.3450     1.1600     5.5130 p5         1 SC1       1.167700
     23 O11         -2.9220     2.5790     6.0090 o          1 SC1      -0.967500
     24 O12         -1.5810     0.5270     6.6100 o          1 SC1      -0.967500
     25 O13         -3.5680     0.2040     5.0880 o          1 SC1      -0.967500
     26 H2           1.8120     0.1430    -0.9530 ha         1 SC1       0.118000
     27 H3           2.9730    -0.6960     1.1290 h1         1 SC1       0.028700
     28 H4           1.0590    -1.4710     2.3690 h1         1 SC1      -0.048300
     29 H5           0.2570     1.4600     2.3750 h1         1 SC1       0.111700
     30 H61         -1.2230    -1.0070     1.4110 hc         1 SC1       0.033700
     31 H62         -1.6570     0.6870     1.1320 hc         1 SC1       0.033700
     32 HO2          2.2050    -1.0080     4.0860 ho         1 SC1       0.321000
     33 H91         -2.7000     1.2930     2.4980 hc         1 SC1       0.006033
     34 H92         -2.6440     2.8620     3.3130 hc         1 SC1       0.006033
     35 H93         -1.3660     2.4100     2.1760 hc         1 SC1       0.006033
@<TRIPOS>BOND
     1     1     2 2
     2     1     6 1
     3     1     7 1
     4     2     3 1
     5     2    26 1
     6     3     4 1
     7     3     8 1
     8     3    27 1
     9     4     5 1
    10     4     9 1
    11     4    28 1
    12     5     6 1
    13     5    10 1
    14     5    29 1
    15     6    30 1
    16     6    31 1
    17     7    11 1
    18     7    12 1
    19     8    13 1
    20     9    32 1
    21    10    17 1
    22    13    14 1
    23    13    15 1
    24    13    16 1
    25    17    18 1
    26    17    19 1
    27    17    22 1
    28    18    33 1
    29    18    34 1
    30    18    35 1
    31    19    20 1
    32    19    21 1
    33    22    23 1
    34    22    24 1
    35    22    25 1
@<TRIPOS>SUBSTRUCTURE
     1 SC1         1 TEMP              0 ****  ****    0 ROOT
