@<TRIPOS>MOLECULE
SC3
   49    52     1     0     0
SMALL
bcc


@<TRIPOS>ATOM
      1 N1         -0.1510   -0.0150   -0.1400 n         1 SC3     -0.477400
      2 C2          1.2550   -0.1870   -0.2370 c         1 SC3      0.814500
      3 N3          2.0520   -0.2990    0.9340 n         1 SC3     -0.422300
      4 C4          1.4230   -0.2470    2.1660 cc        1 SC3      0.501200
      5 C5          0.0010   -0.0760    2.2600 cd        1 SC3     -0.331200
      6 C6         -0.8460    0.0610    1.0790 c         1 SC3      0.762100
      7 N7         -0.3270   -0.0860    3.6140 na        1 SC3     -0.097900
      8 C8          0.8940   -0.2330    4.2980 cd        1 SC3      0.561400
      9 N9          1.9780   -0.3410    3.4430 nc        1 SC3     -0.702000
     10 N10         0.9590   -0.2970    5.7320 nh        1 SC3     -0.693300
     11 C11         1.3630    0.9860    6.3050 c3        1 SC3      0.139300
     12 C12         1.3680    0.9360    7.8430 c3        1 SC3      0.101800
     13 N13         2.1970   -0.1950    8.3640 n4        1 SC3     -0.763000
     14 C14         1.7910   -1.4900    7.7340 c3        1 SC3      0.101800
     15 C15         1.7970   -1.4000    6.1960 c3        1 SC3      0.139300
     16 C16        -1.6470    0.0890    4.1720 c3        1 SC3      0.075600
     17 C17        -1.9660    1.4940    4.5930 ca        1 SC3     -0.129300
     18 C18        -1.9580    1.8470    5.9460 ca        1 SC3     -0.116000
     19 C19        -2.3130    3.1390    6.3310 ca        1 SC3     -0.131500
     20 C20        -2.6670    4.0840    5.3670 ca        1 SC3     -0.105000
     21 C21        -2.6750    3.7330    4.0170 ca        1 SC3     -0.131500
     22 C22        -2.3290    2.4390    3.6280 ca        1 SC3     -0.116000
     23 O23        -2.0770    0.2360    1.1240 o         1 SC3     -0.620500
     24 C24        -0.8710    0.0930   -1.3920 c3        1 SC3      0.075300
     25 O25         1.8000   -0.2390   -1.3570 o         1 SC3     -0.605500
     26 C26         3.4780   -0.4740    0.8390 c3        1 SC3      0.087300
     27 H111        2.3730    1.3280    5.9350 h1        1 SC3      0.098950
     28 H112        0.5920    1.7570    5.9970 h1        1 SC3      0.098950
     29 H121        1.7870    1.9020    8.2430 hx        1 SC3      0.114950
     30 H122        0.3160    0.7980    8.2280 hx        1 SC3      0.114950
     31 H131        2.0930   -0.2590    9.3820 hn        1 SC3      0.454800
     32 H132        3.1840   -0.0130    8.1450 hn        1 SC3      0.454800
     33 H141        2.5130   -2.2900    8.0600 hx        1 SC3      0.114950
     34 H142        0.7580   -1.7460    8.1070 hx        1 SC3      0.114950
     35 H151        1.3620   -2.3620    5.7970 h1        1 SC3      0.098950
     36 H152        2.8640   -1.3260    5.8350 h1        1 SC3      0.098950
     37 H161       -1.7430   -0.6080    5.0540 h1        1 SC3      0.097700
     38 H162       -2.3880   -0.2270    3.3730 h1        1 SC3      0.097700
     39 H18        -1.7000    1.0970    6.7070 ha        1 SC3      0.139000
     40 H19        -2.3290    3.4120    7.3970 ha        1 SC3      0.142500
     41 H20        -2.9510    5.1030    5.6730 ha        1 SC3      0.147000
     42 H21        -2.9650    4.4740    3.2560 ha        1 SC3      0.142500
     43 H22        -2.3570    2.1490    2.5630 ha        1 SC3      0.139000
     44 H241       -1.9730    0.1460   -1.1880 h1        1 SC3      0.071700
     45 H242       -0.5380    1.0180   -1.9350 h1        1 SC3      0.071700
     46 H243       -0.6420   -0.8020   -2.0300 h1        1 SC3      0.071700
     47 H261        3.7860   -0.4880   -0.2420 h1        1 SC3      0.066367
     48 H262        3.9950    0.3740    1.3630 h1        1 SC3      0.066367
     49 H263        3.7720   -1.4420    1.3250 h1        1 SC3      0.066367
@<TRIPOS>BOND
     1    1    2 1
     2    1    6 1
     3    1   24 1
     4    2    3 1
     5    2   25 2
     6    3    4 1
     7    3   26 1
     8    4    5 2
     9    4    9 1
    10    5    6 1
    11    5    7 1
    12    6   23 2
    13    7    8 1
    14    7   16 1
    15    8    9 2
    16    8   10 1
    17   10   11 1
    18   10   15 1
    19   11   12 1
    20   11   27 1
    21   11   28 1
    22   12   13 1
    23   12   29 1
    24   12   30 1
    25   13   14 1
    26   13   31 1
    27   13   32 1
    28   14   15 1
    29   14   33 1
    30   14   34 1
    31   15   35 1
    32   15   36 1
    33   16   17 1
    34   16   37 1
    35   16   38 1
    36   17   18 ar
    37   17   22 ar
    38   18   19 ar
    39   18   39 1
    40   19   20 ar
    41   19   40 1
    42   20   21 ar
    43   20   41 1
    44   21   22 ar
    45   21   42 1
    46   22   43 1
    47   24   44 1
    48   24   45 1
    49   24   46 1
    50   26   47 1
    51   26   48 1
    52   26   49 1
@<TRIPOS>SUBSTRUCTURE
     1 SC3         1 TEMP              0 ****  ****    0 ROOT
