@<TRIPOS>MOLECULE
SC4
   44    44     1     0     0
SMALL
bcc


@<TRIPOS>ATOM
      1 C1         -0.0850   -0.1500    0.4410 c1        1 SC4     -0.170000
      2 C2          1.1320    0.6150    0.1920 c3        1 SC4     -0.128000
      3 C3          2.3990   -0.0110    0.6890 c2        1 SC4      0.014000
      4 C4          2.4350   -1.1780    1.3740 c2        1 SC4     -0.135000
      5 CL1         3.8790   -1.8760    1.9510 cl        1 SC4     -0.017000
      6 C5          1.2190   -1.9910    1.6640 c3        1 SC4     -0.083000
      7 C6          0.0110   -1.3340    1.1160 c2        1 SC4     -0.252000
      8 O1          3.6040    0.5950    0.3590 os        1 SC4     -0.218000
      9 C7          3.5600    2.0290    0.3260 c3        1 SC4     -0.002000
     10 C10         6.5670    4.3350    0.0570 c2        1 SC4     -0.008000
     11 C11         7.6130    3.4630   -0.0510 c2        1 SC4     -0.232000
     12 C12         7.4160    2.0600   -0.0460 c1        1 SC4     -0.119000
     13 C13         6.0650    1.5410    0.0800 c3        1 SC4     -0.196000
     14 C8          4.9610    2.5240    0.1970 c2        1 SC4     -0.048000
     15 C9          5.2200    3.8580    0.1840 c2        1 SC4     -0.203000
     16 O3         -1.2220   -1.9530    1.2770 os        1 SC4      0.117000
     17 C21        -1.3550   -3.0780    1.8870 c2        1 SC4     -0.057000
     18 O2          9.5710   -0.9270   -1.0690 os        1 SC4     -0.103000
     19 C16        10.0890   -3.1720   -1.6530 c2        1 SC4     -0.143000
     20 C17        14.9310   -3.7130   -0.8860 c1        1 SC4      0.379000
     21 C18        14.1060   -2.8260   -1.4310 c2        1 SC4     -0.523000
     22 C19        12.8390   -2.5330   -0.8920 c1        1 SC4     -0.029000
     23 C20        11.9530   -1.5120   -1.3940 c3        1 SC4     -0.076000
     24 C15        10.5210   -1.9320   -1.3790 c2        1 SC4      0.025000
     25 H1          0.9970    1.6270    0.6700 hc        1 SC4      0.131000
     26 H2          1.2180    0.7770   -0.9210 hc        1 SC4      0.131000
     27 H5          1.1240   -2.1240    2.7800 hc        1 SC4      0.088000
     28 H71         3.0910    2.4190    1.2700 h1        1 SC4      0.097000
     29 H72         2.9480    2.3560   -0.5590 h1        1 SC4      0.097000
     30 H10         4.4120    4.6010    0.2690 ha        1 SC4      0.135000
     31 H12         5.8690    0.8600   -0.8040 hc        1 SC4      0.184000
     32 H13         6.0410    0.8450    0.9760 hc        1 SC4      0.184000
     33 H9          6.7200    5.4270    0.0520 ha        1 SC4      0.132000
     34 H211        1.3480   -3.0190    1.2180 hc        1 SC4      0.088000
     35 H212       -0.5240   -3.6430    2.3310 h4        1 SC4      0.169000
     36 H213       -2.3980   -3.4390    1.9280 h4        1 SC4      0.169000
     37 H141        9.1660    0.8380   -0.2750 ha        1 SC4      0.151000
     38 H142        8.6470    3.8320   -0.1470 ha        1 SC4      0.148000
     39 H17        10.7990   -3.9710   -1.9130 h4        1 SC4      0.166000
     40 H18        14.4600   -2.3090   -2.3590 ha        1 SC4      0.196000
     41 H19        12.0590   -0.6200   -0.6760 h1        1 SC4      0.232000
     42 C14        10.0310    0.1410   -0.4560 c1        1 SC4     -0.126000
     43 CL2         8.4850   -3.6830   -1.6350 cl        1 SC4      0.004000
     44 CL3        12.3220   -0.8220   -3.0100 cl        1 SC4     -0.170000
@<TRIPOS>BOND
     1    1    2 1   
     2    1    7 1   
     3    2    3 1   
     4    2   25 1   
     5    2   26 1   
     6    3    4 1   
     7    3    8 1   
     8    4    5 1   
     9    4    6 1   
    10    6    7 1   
    11    6   27 1   
    12    6   34 1   
    13    7   16 1   
    14    8    9 1   
    15    9   14 1   
    16    9   28 1   
    17    9   29 1   
    18   10   11 1   
    19   10   15 1   
    20   10   33 1   
    21   11   12 1   
    22   11   38 1   
    23   12   13 1   
    24   13   14 1   
    25   13   31 1   
    26   13   32 1   
    27   14   15 1   
    28   15   30 1   
    29   16   17 1   
    30   17   35 1   
    31   17   36 1   
    32   18   24 1   
    33   18   42 1   
    34   19   24 1   
    35   19   39 1   
    36   19   43 1   
    37   20   21 1   
    38   21   22 1   
    39   21   40 1   
    40   22   23 1   
    41   23   24 1   
    42   23   41 1   
    43   23   44 1   
    44   37   42 1   
@<TRIPOS>SUBSTRUCTURE
     1 SC4         1 TEMP              0 ****  ****    0 ROOT
