@<TRIPOS>MOLECULE
molecule
   44    46     1     0     0
SMALL
bcc


@<TRIPOS>ATOM
      1 C1           0.0000     0.0000     0.0000 ca         1 SC4      -0.118000
      2 C2           1.3810     0.0000     0.0000 ca         1 SC4      -0.185000
      3 C3           2.0750     0.0000     1.2010 ca         1 SC4       0.093100
      4 C4           1.3810     0.0000     2.4020 ca         1 SC4       0.034400
      5 Cl1          2.2490    -0.0000     3.9060 cl         1 SC4      -0.089400
      6 C5          -0.0010     0.0050     2.4020 ca         1 SC4      -0.187000
      7 C6          -0.6940    -0.0010     1.2010 ca         1 SC4       0.093100
      8 O1           3.4350    -0.0000     1.2000 os         1 SC4      -0.278900
      9 C7           3.8480     0.0000    -0.1670 c3         1 SC4       0.162700
     10 C10          7.4130     1.2590    -0.3530 ca         1 SC4      -0.111000
     11 C11          8.1130     0.0680    -0.3870 ca         1 SC4      -0.089300
     12 C12          7.4320    -1.1350    -0.3500 ca         1 SC4      -0.111000
     13 C13          6.0530    -1.1470    -0.2780 ca         1 SC4      -0.106500
     14 C8           5.3520     0.0440    -0.2440 ca         1 SC4      -0.094300
     15 C9           6.0330     1.2470    -0.2850 ca         1 SC4      -0.106500
     16 O3          -2.0540    -0.0010     1.2010 os         1 SC4      -0.294900
     17 C21         -2.4680    -0.0000     2.5680 c3         1 SC4       0.103700
     18 O2          10.0250     0.0810    -1.8310 os         1 SC4      -0.297900
     19 C16         12.0240    -1.9430    -1.5620 ca         1 SC4       0.044900
     20 C17         13.4040    -2.0220    -1.5370 ca         1 SC4      -0.118000
     21 C18         14.1650    -0.8670    -1.5390 ca         1 SC4      -0.114000
     22 C19         13.5470     0.3700    -1.5670 ca         1 SC4      -0.118000
     23 C20         12.1680     0.4550    -1.5990 ca         1 SC4       0.044900
     24 C15         11.4020    -0.7030    -1.5900 ca         1 SC4       0.063100
     25 H1          -0.5410    -0.0020    -0.9380 ha         1 SC4       0.149000
     26 H2           1.9230     0.0000    -0.9380 ha         1 SC4       0.153000
     27 H5          -0.5430     0.0050     3.3400 ha         1 SC4       0.159000
     28 H71          3.4630     0.8850    -0.6600 h1         1 SC4       0.047200
     29 H72          3.4630    -0.8840    -0.6610 h1         1 SC4       0.047200
     30 H10          7.9460     2.2010    -0.3840 ha         1 SC4       0.136000
     31 H12          7.9800    -2.0690    -0.3760 ha         1 SC4       0.136000
     32 H13          5.5200    -2.0890    -0.2490 ha         1 SC4       0.134500
     33 H9           5.4840     2.1810    -0.2590 ha         1 SC4       0.134500
     34 H211        -3.5500    -0.0030     2.6180 h1         1 SC4       0.045367
     35 H212        -2.0820    -0.8840     3.0630 h1         1 SC4       0.045367
     36 H213        -2.0860     0.8850     3.0610 h1         1 SC4       0.045367
     37 H141        10.0110    -0.8010     0.0300 h1         1 SC4       0.050200
     38 H142         9.9970     0.9680     0.0280 h1         1 SC4       0.050200
     39 H17         13.8900    -2.9900    -1.5150 ha         1 SC4       0.154000
     40 H18         15.2460    -0.9310    -1.5170 ha         1 SC4       0.147000
     41 H19         14.1450     1.2730    -1.5690 ha         1 SC4       0.154000
     42 C14          9.6180     0.0800    -0.4630 c3         1 SC4       0.147700
     43 Cl2         11.0700    -3.3930    -1.5600 cl         1 SC4      -0.076900
     44 Cl3         11.3940     2.0080    -1.6340 cl         1 SC4      -0.076900
@<TRIPOS>BOND
     1     1     2 ar
     2     1     7 ar
     3     1    25 1
     4     2     3 ar
     5     2    26 1
     6     3     4 ar
     7     3     8 1
     8     4     5 1
     9     4     6 ar
    10    43    19 1
    11    44    23 1
    12     6     7 ar
    13     6    27 1
    14     7    16 1
    15     8     9 1
    16     9    14 1
    17     9    28 1
    18     9    29 1
    19    10    11 ar
    20    10    15 ar
    21    10    30 1
    22    11    12 ar
    23    11    42 1
    24    12    13 ar
    25    12    31 1
    26    13    14 ar
    27    13    32 1
    28    14    15 ar
    29    15    33 1
    30    16    17 1
    31    17    34 1
    32    17    35 1
    33    17    36 1
    34    42    18 1
    35    42    37 1
    36    42    38 1
    37    18    24 1
    38    19    20 ar
    39    19    24 ar
    40    20    21 ar
    41    20    39 1
    42    21    22 ar
    43    21    40 1
    44    22    23 ar
    45    22    41 1
    46    23    24 ar
@<TRIPOS>SUBSTRUCTURE
     1 SC4         1 TEMP              0 ****  ****    0 ROOT
