@<TRIPOS>MOLECULE
SC5
   51    52     1     0     0
SMALL
bcc


@<TRIPOS>ATOM
      1 C1           0.0000     0.0000     0.0000 ca         1 SC5      -0.092000
      2 C2           1.3820     0.0000     0.0000 ca         1 SC5      -0.095000
      3 C3           2.0730     0.0000     1.1970 ca         1 SC5      -0.095500
      4 C4           1.3830    -0.0090     2.3950 ca         1 SC5      -0.123300
      5 C5          -0.0000    -0.0080     2.3950 ca         1 SC5      -0.095500
      6 C6          -0.6910    -0.0040     1.1980 ca         1 SC5      -0.095000
      7 C7           2.6070    -1.4350     4.0110 c3         1 SC5      -0.000100
      8 C8           2.1360    -0.0130     3.7000 c3         1 SC5       0.186800
      9 C9           5.3650     0.2980     5.4530 c3         1 SC5       0.116800
     10 C10          6.0430    -0.5890     6.5000 c3         1 SC5       0.408900
     11 O1           6.0640     0.0890     7.7570 oh         1 SC5      -0.595800
     12 O2           5.3130    -1.8120     6.6310 oh         1 SC5      -0.595800
     13 N1           4.3470     2.6850     4.7680 nu         1 SC5      -0.424600
     14 C11          3.4410     1.5410     4.8990 c3         1 SC5       0.439900
     15 N2           3.9890     0.5910     5.8760 n7         1 SC5      -0.549200
     16 N3           3.3000     0.8760     3.5960 n7         1 SC5      -0.580200
     17 C12          4.4990     6.6590     8.8110 c3         1 SC5       0.053100
     18 N4           3.5380     7.7220     8.4870 nz         1 SC5       0.064400
     19 C13          3.5880     4.5340     7.8510 ca         1 SC5      -0.006000
     20 C14          3.5450     3.5670     6.8660 ca         1 SC5      -0.182500
     21 C15          4.3850     3.6640     5.7630 ca         1 SC5       0.118600
     22 C16          5.2580     4.7380     5.6520 ca         1 SC5      -0.182500
     23 C17          5.2920     5.7040     6.6390 ca         1 SC5      -0.006000
     24 C18          4.4590     5.6020     7.7370 ca         1 SC5      -0.298300
     25 H1          -0.5420     0.0020    -0.9380 ha         1 SC5       0.108000
     26 H2           1.9240     0.0050    -0.9380 ha         1 SC5       0.107000
     27 H3           3.1570    -0.0000     1.1970 ha         1 SC5       0.109500
     28 H5          -0.5420    -0.0130     3.3330 ha         1 SC5       0.109500
     29 H6          -1.7740    -0.0030     1.1980 ha         1 SC5       0.107000
     30 H71          2.1830    -1.7570     4.9550 hc         1 SC5       0.019700
     31 H72          2.2830    -2.1030     3.2230 hc         1 SC5       0.019700
     32 H73          3.6880    -1.4510     4.0770 hc         1 SC5       0.019700
     33 H8           1.4860     0.3350     4.4940 h1         1 SC5       0.021700
     34 H91          5.9180     1.2250     5.3530 h1         1 SC5       0.032200
     35 H92          5.3480    -0.2160     4.5000 h1         1 SC5       0.032200
     36 H10          7.0570    -0.8060     6.1890 h2         1 SC5      -0.020300
     37 HO1          6.8220    -0.1820     8.2480 ho         1 SC5       0.393500
     38 HO2          5.9050    -2.5090     6.8570 ho         1 SC5       0.393500
     39 HN1          4.9040     2.7890     3.9430 hn         1 SC5       0.313800
     40 H11          2.4710     1.8860     5.2350 h3         1 SC5       0.027700
     41 HN2          4.0020     1.0150     6.7820 hn         1 SC5       0.274800
     42 HN3          3.1340     1.5630     2.8870 hn         1 SC5       0.268800
     43 H121         4.2340     6.2090     9.7610 hx         1 SC5       0.077200
     44 H122         5.4950     7.0790     8.8760 hx         1 SC5       0.077200
     45 HN41         2.6130     7.3410     8.4660 hn         1 SC5       0.220800
     46 HN42         3.7600     8.1110     7.5920 hn         1 SC5       0.220800
     47 H13          2.9330     4.4600     8.7110 ha         1 SC5       0.102000
     48 H14          2.8620     2.7310     6.9570 ha         1 SC5       0.135500
     49 H16          5.9110     4.8180     4.7910 ha         1 SC5       0.135500
     50 H17          5.9730     6.5420     6.5520 ha         1 SC5       0.102000
     51 H43          3.5530     8.4160     9.2080 hn         1 SC5       0.220800
@<TRIPOS>BOND
     1     1     2 ar  
     2     1     6 ar  
     3     1    25 1   
     4     2     3 ar  
     5     2    26 1   
     6     3     4 ar  
     7     3    27 1   
     8     4     5 ar  
     9     4     8 1   
    10     5     6 ar  
    11     5    28 1   
    12     6    29 1   
    13     7     8 1   
    14     7    30 1   
    15     7    31 1   
    16     7    32 1   
    17     8    16 1   
    18     8    33 1   
    19     9    10 1   
    20     9    15 1   
    21     9    34 1   
    22     9    35 1   
    23    10    11 1   
    24    10    12 1   
    25    10    36 1   
    26    11    37 1   
    27    12    38 1   
    28    13    14 1   
    29    13    21 1   
    30    13    39 1   
    31    14    15 1   
    32    14    16 1   
    33    14    40 1   
    34    15    41 1   
    35    16    42 1   
    36    17    18 1   
    37    17    24 1   
    38    17    43 1   
    39    17    44 1   
    40    18    45 1   
    41    18    46 1   
    42    18    51 1   
    43    19    20 ar  
    44    19    24 ar  
    45    19    47 1   
    46    20    21 ar  
    47    20    48 1   
    48    21    22 ar  
    49    22    23 ar  
    50    22    49 1   
    51    23    24 ar  
    52    23    50 1   
@<TRIPOS>SUBSTRUCTURE
     1 SC5         1 TEMP              0 ****  ****    0 ROOT
