@<TRIPOS>MOLECULE
SC6
   83    87     1     0     0
SMALL
bcc


@<TRIPOS>ATOM
      1 C1           0.0000     0.0000     0.0000 ca         1 SC6      -0.102000
      2 C2           1.3810     0.0000     0.0000 ca         1 SC6      -0.105300
      3 C3           2.0780     0.0000     1.1920 ca         1 SC6      -0.071000
      4 C4           1.3890    -0.0010     2.4070 ca         1 SC6      -0.165600
      5 C5          -0.0040    -0.0010     2.4140 ca         1 SC6       0.022000
      6 C6          -0.7010    -0.0010     1.2080 ca         1 SC6      -0.153600
      7 C7          -2.1800    -0.0010     1.2060 c          1 SC6       0.629700
      8 N1          -2.8530    -0.3870     0.1040 n          1 SC6      -0.142800
      9 O1          -2.7890     0.3470     2.1990 o          1 SC6      -0.648100
     10 C8          -2.2490    -0.9430    -1.1210 c3         1 SC6       0.029000
     11 C9          -3.3800    -1.7710    -1.7800 c3         1 SC6      -0.032400
     12 C10         -4.6240    -0.8960    -1.4740 c3         1 SC6      -0.039400
     13 C11         -4.3110    -0.3300    -0.0740 c3         1 SC6       0.034700
     14 C12         -4.7890     1.1210     0.0180 c3         1 SC6       0.182400
     15 C30          2.1300    -0.0000    -1.3070 c3         1 SC6       0.066200
     16 C14          2.1370    -0.0020     3.6820 c          1 SC6       0.596700
     17 N2           3.4840    -0.0010     3.6740 ns         1 SC6      -0.193900
     18 O2           1.5360    -0.0020     4.7390 o          1 SC6      -0.639100
     19 C15          4.2250    -0.0030     4.9370 c3         1 SC6       0.008700
     20 C16          5.6110     0.6070     4.7160 c3         1 SC6       0.187100
     21 C17          4.3740    -1.4400     5.4400 c3         1 SC6       0.005900
     22 O3           6.3640    -0.2300     3.8360 oh         1 SC6      -0.589800
     23 C19          3.0160    -2.0000     5.7740 ca         1 SC6      -0.023300
     24 C21          2.5010    -1.8470     7.0470 ca         1 SC6      -0.139000
     25 C22          1.2520    -2.3600     7.3550 ca         1 SC6       0.141400
     26 C23          0.5200    -3.0260     6.3870 ca         1 SC6      -0.164000
     27 C24          1.0360    -3.1770     5.1130 ca         1 SC6       0.141400
     28 C25          2.2830    -2.6590     4.8060 ca         1 SC6      -0.139000
     29 F2           0.7480    -2.2120     8.6000 f          1 SC6      -0.128900
     30 F1           0.3230    -3.8280     4.1670 f          1 SC6      -0.128900
     31 C26          7.9730     1.9830     7.2870 c3         1 SC6       0.147100
     32 C18          6.5620     2.3940     7.7600 c3         1 SC6       0.113800
     33 N3           5.5920     1.6110     6.9740 n7         1 SC6      -0.573200
     34 C20          7.7130     1.4090     5.8700 c3         1 SC6      -0.026400
     35 C27          6.3380     0.7210     6.0580 c3         1 SC6       0.091500
     36 O4           8.8350     3.1200     7.2220 os         1 SC6      -0.288900
     37 C31          9.5390     3.4250     8.3430 ca         1 SC6       0.147100
     38 C32          9.3220     2.7170     9.5160 ca         1 SC6      -0.178000
     39 C33         10.0390     3.0290    10.6550 ca         1 SC6      -0.056500
     40 C34         10.9740     4.0470    10.6260 ca         1 SC6      -0.143000
     41 C35         11.1930     4.7550     9.4580 ca         1 SC6      -0.056500
     42 C36         10.4830     4.4430     8.3160 ca         1 SC6      -0.178000
     43 O5          -4.2510     1.8700    -1.0730 os         1 SC6      -0.424600
     44 H1          -0.5410     0.0000    -0.9390 ha         1 SC6       0.140000
     45 H3           3.1610     0.0000     1.1840 ha         1 SC6       0.103000
     46 H5          -0.5440    -0.0010     3.3540 ha         1 SC6       0.149000
     47 H81         -1.9340    -0.1440    -1.7810 h1         1 SC6       0.030200
     48 H82         -1.4120    -1.5850    -0.8690 h1         1 SC6       0.030200
     49 H91         -3.2220    -1.8570    -2.8480 hc         1 SC6       0.024700
     50 H92         -3.4680    -2.7440    -1.3130 hc         1 SC6       0.024700
     51 H101        -5.5210    -1.5040    -1.4480 hc         1 SC6       0.034200
     52 H102        -4.7150    -0.0950    -2.1980 hc         1 SC6       0.034200
     53 H11         -4.7970    -0.9330     0.6830 h1         1 SC6       0.043700
     54 H121        -4.4540     1.5530     0.9530 h1         1 SC6       0.013200
     55 H122        -5.8720     1.1480    -0.0250 h1         1 SC6       0.013200
     56 H301         2.1500    -1.0050    -1.7120 hc         1 SC6       0.008033
     57 H302         3.1440     0.3430    -1.1420 hc         1 SC6       0.008033
     58 H303         1.6350     0.6610    -2.0080 hc         1 SC6       0.008033
     59 HN2          3.9790     0.0010     2.8040 hn         1 SC6       0.181500
     60 H15          3.6870     0.5830     5.6720 h1         1 SC6       0.078700
     61 H16          5.5070     1.5920     4.2760 h1         1 SC6       0.021700
     62 H171         4.8350    -2.0460     4.6690 hc         1 SC6       0.033700
     63 H172         4.9960    -1.4490     6.3270 hc         1 SC6       0.033700
     64 HO3          6.7830     0.3010     3.1780 ho         1 SC6       0.394000
     65 H21          3.0740    -1.3260     7.8050 ha         1 SC6       0.118000
     66 H23         -0.4570    -3.4300     6.6280 ha         1 SC6       0.132000
     67 H25          2.6880    -2.7780     3.8080 ha         1 SC6       0.118000
     68 H26          8.3840     1.2190     7.9360 h1         1 SC6       0.030700
     69 H182         6.4480     2.1690     8.8140 h1         1 SC6       0.028200
     70 HN3          5.0300     1.0590     7.5910 hn         1 SC6       0.257800
     71 H201         7.6490     2.2050     5.1370 hc         1 SC6       0.034700
     72 H202         8.4730     0.6850     5.6010 hc         1 SC6       0.034700
     73 H27          6.4660    -0.2560     6.5070 h1         1 SC6       0.032700
     74 H32          8.5890     1.9190     9.5390 ha         1 SC6       0.118000
     75 H33          9.8690     2.4760    11.5700 ha         1 SC6       0.102000
     76 H34         11.5340     4.2920    11.5210 ha         1 SC6       0.106000
     77 H35         11.9280     5.5510     9.4380 ha         1 SC6       0.102000
     78 H36         10.6550     4.9980     7.4020 ha         1 SC6       0.118000
     79 H371        -5.7150     3.3150    -1.1800 h1         1 SC6      -0.012300
     80 H372        -4.1660     3.7480    -1.9160 h1         1 SC6      -0.012300
     81 H373        -4.3300     3.7130    -0.1550 h1         1 SC6      -0.012300
     82 H181         6.4090     3.4520     7.5840 h1         1 SC6       0.028200
     83 C37         -4.6390     3.2450    -1.0810 c3         1 SC6       0.254700
@<TRIPOS>BOND
     1     1     2 ar  
     2     1     6 ar  
     3     1    44 1   
     4     2     3 ar  
     5     2    15 1   
     6     3     4 ar  
     7     3    45 1   
     8     4     5 ar  
     9     4    16 1   
    10     5     6 ar  
    11     5    46 1   
    12     6     7 1   
    13     7     8 1   
    14     7     9 2   
    15     8    10 1   
    16     8    13 1   
    17    10    11 1   
    18    10    47 1   
    19    10    48 1   
    20    11    12 1   
    21    11    49 1   
    22    11    50 1   
    23    12    13 1   
    24    12    51 1   
    25    12    52 1   
    26    13    14 1   
    27    13    53 1   
    28    14    43 1   
    29    14    54 1   
    30    14    55 1   
    31    15    56 1   
    32    15    57 1   
    33    15    58 1   
    34    16    17 1   
    35    16    18 2   
    36    17    19 1   
    37    17    59 1   
    38    19    20 1   
    39    19    21 1   
    40    19    60 1   
    41    20    22 1   
    42    20    35 1   
    43    20    61 1   
    44    21    23 1   
    45    21    62 1   
    46    21    63 1   
    47    22    64 1   
    48    23    24 ar  
    49    23    28 ar  
    50    24    25 ar  
    51    24    65 1   
    52    25    26 ar  
    53    25    29 1   
    54    26    27 ar  
    55    26    66 1   
    56    27    28 ar  
    57    27    30 1   
    58    28    67 1   
    59    31    32 1   
    60    31    34 1   
    61    31    36 1   
    62    31    68 1   
    63    32    33 1   
    64    32    69 1   
    65    32    82 1   
    66    33    35 1   
    67    33    70 1   
    68    34    35 1   
    69    34    71 1   
    70    34    72 1   
    71    35    73 1   
    72    36    37 1   
    73    37    38 ar  
    74    37    42 ar  
    75    38    39 ar  
    76    38    74 1   
    77    39    40 ar  
    78    39    75 1   
    79    40    41 ar  
    80    40    76 1   
    81    41    42 ar  
    82    41    77 1   
    83    42    78 1   
    84    43    83 1   
    85    79    83 1   
    86    80    83 1   
    87    81    83 1   
@<TRIPOS>SUBSTRUCTURE
     1 SC6         1 TEMP              0 ****  ****    0 ROOT
