@<TRIPOS>MOLECULE
SC7
   83    85     1     0     0
SMALL
bcc


@<TRIPOS>ATOM
      1 F1           0.0000     0.0000     0.0000 f          1 SC7      -0.127900
      2 F2           3.0920     0.0030    -3.5900 f          1 SC7      -0.127900
      3 C1           6.3590     4.5900    -4.2330 ca         1 SC7      -0.097000
      4 C2           4.9800     4.5540    -4.0120 ca         1 SC7      -0.149600
      5 C3           4.4760     3.9260    -2.8750 ca         1 SC7       0.014000
      6 C4           5.3520     3.3390    -1.9650 ca         1 SC7      -0.160600
      7 C5           6.7290     3.3820    -2.1980 ca         1 SC7      -0.074000
      8 C6           7.2220     4.0050    -3.3270 ca         1 SC7      -0.103300
      9 N1           4.3080     6.4230    -5.4440 n          1 SC7      -0.150800
     10 O1           3.0750     4.5770    -5.3640 o          1 SC7      -0.630100
     11 C8           5.5510     7.1050    -5.0770 c3         1 SC7       0.035000
     12 C9           3.3340     7.0910    -6.3130 c3         1 SC7       0.035000
     13 C10          2.2640     7.7680    -5.4540 c3         1 SC7      -0.056900
     14 C11          1.2490     8.4650    -6.3620 c3         1 SC7       0.008400
     15 C12          6.5610     6.9730    -6.2180 c3         1 SC7      -0.056900
     16 C13          7.9060     7.5560    -5.7790 c3         1 SC7       0.008400
     17 C14          8.7080     4.0480    -3.5720 c3         1 SC7       0.065200
     18 N2           5.6750     2.1020     0.1240 ns         1 SC7      -0.197900
     19 C16          5.1530     1.4410     1.3220 c3         1 SC7       0.010700
     20 C17          6.2270     1.4410     2.4120 c3         1 SC7       0.184100
     21 O3           7.3340     0.6420     1.9910 oh         1 SC7      -0.583800
     22 C19          3.6300     0.0000     0.0000 ca         1 SC7      -0.023300
     23 C20          2.3250     0.0000     0.4560 ca         1 SC7      -0.140000
     24 C21          1.2750     0.0000    -0.4460 ca         1 SC7       0.140400
     25 C22          1.5320     0.0020    -1.8060 ca         1 SC7      -0.165000
     26 C23          2.8390     0.0020    -2.2630 ca         1 SC7       0.140400
     27 C24          3.8880     0.0070    -1.3580 ca         1 SC7      -0.140000
     28 C25          5.6430     0.8630     3.7030 c3         1 SC7       0.093500
     29 C26          6.7160     0.8630     4.7930 c3         1 SC7      -0.069400
     30 C27          6.1220     0.3030     6.0890 c3         1 SC7       0.184100
     31 C28          4.9090     1.1460     6.4910 c3         1 SC7      -0.097400
     32 C29          3.8870     1.1370     5.3510 c3         1 SC7       0.153800
     33 N3           4.5050     1.6830     4.1350 n7         1 SC7      -0.579200
     34 O4           7.1040     0.3530     7.1260 os         1 SC7      -0.409600
     35 C30          6.9670    -0.6770     8.1070 c3         1 SC7       0.209400
     36 C31          8.0640    -0.5260     9.1620 c3         1 SC7      -0.000100
     37 H1           6.7520     5.0780    -5.1170 ha         1 SC7       0.138000
     38 H3           3.4080     3.8950    -2.6990 ha         1 SC7       0.143000
     39 H5           7.4110     2.9250    -1.4910 ha         1 SC7       0.103000
     40 H81          5.9590     6.6550    -4.1800 h1         1 SC7       0.035450
     41 H82          5.3470     8.1530    -4.8950 h1         1 SC7       0.035450
     42 H91          3.8390     7.8360    -6.9150 h1         1 SC7       0.035450
     43 H92          2.8670     6.3590    -6.9610 h1         1 SC7       0.035450
     44 H101         2.7310     8.4990    -4.8050 hc         1 SC7       0.023700
     45 H102         1.7590     7.0220    -4.8520 hc         1 SC7       0.023700
     46 H111         0.8100     7.7400    -7.0360 hc         1 SC7       0.003033
     47 H112         0.4700     8.9130    -5.7560 hc         1 SC7       0.003033
     48 H113         1.7480     9.2370    -6.9360 hc         1 SC7       0.003033
     49 H121         6.6860     5.9270    -6.4710 hc         1 SC7       0.023700
     50 H122         6.1990     7.5140    -7.0840 hc         1 SC7       0.023700
     51 H131         7.9710     8.5910    -6.0920 hc         1 SC7       0.003033
     52 H132         8.7100     6.9900    -6.2330 hc         1 SC7       0.003033
     53 H133         7.9890     7.5000    -4.7000 hc         1 SC7       0.003033
     54 H141         8.9040     3.9300    -4.6310 hc         1 SC7       0.008367
     55 H142         9.1880     3.2450    -3.0250 hc         1 SC7       0.008367
     56 H143         9.1030     4.9990    -3.2360 hc         1 SC7       0.008367
     57 HN2          6.6630     2.1560    -0.0280 hn         1 SC7       0.179500
     58 H16          4.2790     1.9730     1.6760 h1         1 SC7       0.085700
     59 H17          6.5610     2.4560     2.5900 h1         1 SC7       0.005700
     60 HO3          8.1370     1.1140     2.1400 ho         1 SC7       0.392000
     61 H181         5.6230    -0.5080     0.5460 hc         1 SC7       0.035700
     62 H182         4.4690    -0.5170     1.8860 hc         1 SC7       0.035700
     63 H20          2.1230    -0.0010     1.5210 ha         1 SC7       0.120500
     64 H22          0.7120    -0.0230    -2.5130 ha         1 SC7       0.132000
     65 H24          4.9100     0.0120    -1.7150 ha         1 SC7       0.120500
     66 H25          5.3080    -0.1520     3.5300 h1         1 SC7       0.058700
     67 H261         7.5480     0.2430     4.4800 hc         1 SC7       0.031700
     68 H262         7.0580     1.8770     4.9630 hc         1 SC7       0.031700
     69 H27          5.8110    -0.7220     5.9290 h1         1 SC7       0.013700
     70 H281         4.4580     0.7260     7.3820 hc         1 SC7       0.029200
     71 H282         5.2250     2.1640     6.6840 hc         1 SC7       0.029200
     72 H291         3.0360     1.7480     5.6270 h1         1 SC7       0.026200
     73 H292         3.5640     0.1200     5.1660 h1         1 SC7       0.026200
     74 HN3          4.8140     2.6190     4.3090 hn         1 SC7       0.258800
     75 H301         5.9960    -0.5980     8.5810 h1         1 SC7      -0.010300
     76 H302         7.0570    -1.6450     7.6290 h1         1 SC7      -0.010300
     77 H311         7.8190     0.2960     9.8230 hc         1 SC7       0.009367
     78 H312         8.1420    -1.4410     9.7370 hc         1 SC7       0.009367
     79 H313         9.0100    -0.3250     8.6730 hc         1 SC7       0.009367
     80 C18          4.7710    -0.0010     0.9830 c3         1 SC7       0.009900
     81 C15          4.8260     2.6700    -0.7550 c          1 SC7       0.595700
     82 C7           4.0580     5.1810    -4.9820 c          1 SC7       0.609700
     83 O2           3.6280     2.6340    -0.5540 o          1 SC7      -0.636100
@<TRIPOS>BOND
     1     1    24 1   
     2     2    26 1   
     3     3     4 ar  
     4     3     8 ar  
     5     3    37 1   
     6     4     5 ar  
     7     4    82 1   
     8     5     6 ar  
     9     5    38 1   
    10     6     7 ar  
    11     6    81 1   
    12     7     8 ar  
    13     7    39 1   
    14     8    17 1   
    15     9    11 1   
    16     9    12 1   
    17     9    82 1   
    18    10    82 2   
    19    11    15 1   
    20    11    40 1   
    21    11    41 1   
    22    12    13 1   
    23    12    42 1   
    24    12    43 1   
    25    13    14 1   
    26    13    44 1   
    27    13    45 1   
    28    14    46 1   
    29    14    47 1   
    30    14    48 1   
    31    15    16 1   
    32    15    49 1   
    33    15    50 1   
    34    16    51 1   
    35    16    52 1   
    36    16    53 1   
    37    17    54 1   
    38    17    55 1   
    39    17    56 1   
    40    18    19 1   
    41    18    57 1   
    42    18    81 1   
    43    19    20 1   
    44    19    58 1   
    45    19    80 1   
    46    20    21 1   
    47    20    28 1   
    48    20    59 1   
    49    21    60 1   
    50    22    23 ar  
    51    22    27 ar  
    52    22    80 1   
    53    23    24 ar  
    54    23    63 1   
    55    24    25 ar  
    56    25    26 ar  
    57    25    64 1   
    58    26    27 ar  
    59    27    65 1   
    60    28    29 1   
    61    28    33 1   
    62    28    66 1   
    63    29    30 1   
    64    29    67 1   
    65    29    68 1   
    66    30    31 1   
    67    30    34 1   
    68    30    69 1   
    69    31    32 1   
    70    31    70 1   
    71    31    71 1   
    72    32    33 1   
    73    32    72 1   
    74    32    73 1   
    75    33    74 1   
    76    34    35 1   
    77    35    36 1   
    78    35    75 1   
    79    35    76 1   
    80    36    77 1   
    81    36    78 1   
    82    36    79 1   
    83    61    80 1   
    84    62    80 1   
    85    81    83 2   
@<TRIPOS>SUBSTRUCTURE
     1 SC7         1 TEMP              0 ****  ****    0 ROOT
