@<TRIPOS>MOLECULE
SC8
   38    41     1     0     0
SMALL
bcc


@<TRIPOS>ATOM
      1 C01          0.0000     0.0000     0.0000 cc         1 SC8      -0.375600
      2 C02          1.3900     0.0000     0.0000 cd         1 SC8       0.243500
      3 N03          1.7870     0.0000     1.3130 na         1 SC8       0.481200
      4 N04          0.6340     0.0010     2.1060 nd         1 SC8      -0.761100
      5 C05         -0.4190     0.0060     1.3230 cc         1 SC8       0.496500
      6 N06          2.2930    -0.0010    -0.9880 nd         1 SC8      -0.599000
      7 C07          3.5900    -0.0010    -0.7240 cc         1 SC8       0.512800
      8 C08          4.0390    -0.0020     0.6080 cc         1 SC8      -0.397300
      9 C09          3.1240     0.0000     1.6210 cd         1 SC8       0.010300
     10 N10          3.5360     0.0000     2.9380 nu         1 SC8      -0.380600
     11 C11          4.5710    -0.0010    -1.8350 ca         1 SC8      -0.146500
     12 C12          4.9660     0.0000     3.2560 c3         1 SC8       0.224100
     13 C13          5.1480     0.0010     4.7530 ca         1 SC8      -0.099300
     14 C14          5.2330    -1.1900     5.4570 ca         1 SC8      -0.202300
     15 C15          5.4000    -1.1500     6.8290 ca         1 SC8       0.408200
     16 N16          5.4770     0.0020     7.4650 nb         1 SC8      -0.569000
     17 C17          5.4000     1.1540     6.8270 ca         1 SC8       0.408200
     18 C18          5.2390     1.1920     5.4560 ca         1 SC8      -0.202300
     19 C19          5.9380    -0.0020    -1.5610 ca         1 SC8      -0.080000
     20 C20          6.8470    -0.0030    -2.5990 ca         1 SC8      -0.102000
     21 C21          6.4060    -0.0040    -3.9110 ca         1 SC8      -0.077000
     22 C22          5.0500    -0.0030    -4.1900 ca         1 SC8      -0.050600
     23 C23          4.1300    -0.0070    -3.1580 ca         1 SC8      -0.018600
     24 Cl24         2.4300    -0.0140    -3.5090 cl         1 SC8       0.061600
     25 Cl25         4.5050    -0.0030    -5.8380 cl         1 SC8      -0.003400
     26 H01         -0.6400     0.0020    -0.8740 ha         1 SC8       0.148000
     27 H05         -1.4500     0.0140     1.6560 h4         1 SC8       0.010800
     28 H08          5.1000    -0.0010     0.8280 ha         1 SC8       0.149000
     29 HN10         2.8600     0.0370     3.6740 hn         1 SC8       0.319800
     30 H121         5.4300     0.8850     2.8360 h1         1 SC8       0.025200
     31 H122         5.4300    -0.8840     2.8360 h1         1 SC8       0.025200
     32 H14          5.1700    -2.1390     4.9390 ha         1 SC8       0.118500
     33 H15          5.4670    -2.0760     7.3880 h4         1 SC8      -0.015900
     34 H17          5.4700     2.0810     7.3850 h4         1 SC8      -0.015900
     35 H18          5.1760     2.1410     4.9370 ha         1 SC8       0.118500
     36 H19          6.2860    -0.0010    -0.5350 ha         1 SC8       0.110000
     37 H20          7.9100    -0.0040    -2.3870 ha         1 SC8       0.108000
     38 H21          7.1240    -0.0030    -4.7220 ha         1 SC8       0.116000
@<TRIPOS>BOND
     1     1     2 2   
     2     1     5 1   
     3     1    26 1   
     4     2     3 1   
     5     2     6 1   
     6     3     4 1   
     7     3     9 1   
     8     4     5 2   
     9     5    27 1   
    10     6     7 2   
    11     7     8 1   
    12     7    11 1   
    13     8     9 2   
    14     8    28 1   
    15     9    10 1   
    16    10    12 1   
    17    10    29 1   
    18    11    19 ar  
    19    11    23 ar  
    20    12    13 1   
    21    12    30 1   
    22    12    31 1   
    23    13    14 ar  
    24    13    18 ar  
    25    14    15 ar  
    26    14    32 1   
    27    15    16 ar  
    28    15    33 1   
    29    16    17 ar  
    30    17    18 ar  
    31    17    34 1   
    32    18    35 1   
    33    19    20 ar  
    34    19    36 1   
    35    20    21 ar  
    36    20    37 1   
    37    21    22 ar  
    38    21    38 1   
    39    22    23 ar  
    40    22    25 1   
    41    23    24 1   
@<TRIPOS>SUBSTRUCTURE
     1 SC8         1 TEMP              0 ****  ****    0 ROOT
