@<TRIPOS>MOLECULE
molecule
   38    41     1     0     0
SMALL
bcc


@<TRIPOS>ATOM
      1 C01          0.0000     0.0000     0.0000 cc         1 SC8      -0.377600
      2 C02          1.3900     0.0000     0.0000 cd         1 SC8       0.440500
      3 N03          1.7870     0.0000     1.3130 na         1 SC8      -0.001800
      4 N04          0.6340     0.0010     2.1060 nc         1 SC8      -0.596100
      5 C05         -0.4190     0.0060     1.3230 cd         1 SC8       0.423500
      6 N06          2.2930    -0.0010    -0.9880 nd         1 SC8      -0.699000
      7 C07          3.5900    -0.0010    -0.7240 cc         1 SC8       0.558800
      8 C08          4.0390    -0.0020     0.6080 cd         1 SC8      -0.422300
      9 C09          3.1240     0.0000     1.6210 cc         1 SC8       0.335300
     10 N10          3.5360     0.0000     2.9380 nu         1 SC8      -0.799600
     11 C11          4.5710    -0.0010    -1.8350 ca         1 SC8      -0.138500
     12 C12          4.9660     0.0000     3.2560 c3         1 SC8       0.286100
     13 C13          5.1480     0.0010     4.7530 ca         1 SC8      -0.087300
     14 C14          5.2330    -1.1900     5.4570 ca         1 SC8      -0.235800
     15 C15          5.4000    -1.1500     6.8290 ca         1 SC8       0.421200
     16 N16          5.4770     0.0020     7.4650 nb         1 SC8      -0.679000
     17 C17          5.4000     1.1540     6.8270 ca         1 SC8       0.421200
     18 C18          5.2390     1.1920     5.4560 ca         1 SC8      -0.235800
     19 C19          5.9380    -0.0020    -1.5610 ca         1 SC8      -0.099000
     20 C20          6.8470    -0.0030    -2.5990 ca         1 SC8      -0.131000
     21 C21          6.4060    -0.0040    -3.9110 ca         1 SC8      -0.100000
     22 C22          5.0500    -0.0030    -4.1900 ca         1 SC8       0.018400
     23 C23          4.1300    -0.0070    -3.1580 ca         1 SC8       0.066400
     24 Cl24         2.4300    -0.0140    -3.5090 cl         1 SC8      -0.031400
     25 Cl25         4.5050    -0.0030    -5.8380 cl         1 SC8      -0.083400
     26 H01         -0.6400     0.0020    -0.8740 ha         1 SC8       0.172000
     27 H05         -1.4500     0.0140     1.6560 h4         1 SC8       0.060800
     28 H08          5.1000    -0.0010     0.8280 ha         1 SC8       0.155000
     29 HN10         2.8600     0.0370     3.6740 hn         1 SC8       0.469800
     30 H121         5.4300     0.8850     2.8360 h1         1 SC8       0.054700
     31 H122         5.4300    -0.8840     2.8360 h1         1 SC8       0.054700
     32 H14          5.1700    -2.1390     4.9390 ha         1 SC8       0.144500
     33 H15          5.4670    -2.0760     7.3880 h4         1 SC8       0.029100
     34 H17          5.4700     2.0810     7.3850 h4         1 SC8       0.029100
     35 H18          5.1760     2.1410     4.9370 ha         1 SC8       0.144500
     36 H19          6.2860    -0.0010    -0.5350 ha         1 SC8       0.140000
     37 H20          7.9100    -0.0040    -2.3870 ha         1 SC8       0.141000
     38 H21          7.1240    -0.0030    -4.7220 ha         1 SC8       0.150000
@<TRIPOS>BOND
     1    17    16 ar
     2    17    18 ar
     3    16    15 ar
     4    18    13 ar
     5    15    14 ar
     6    13    14 ar
     7    13    12 1
     8     4     5 2
     9     4     3 1
    10    10    12 1
    11    10     9 1
    12     5     1 1
    13     3     9 1
    14     3     2 1
    15     9     8 2
    16     1     2 2
    17    24    23 1
    18     2     6 1
    19     8     7 1
    20     6     7 2
    21     7    11 1
    22    23    11 ar
    23    23    22 ar
    24    11    19 ar
    25    25    22 1
    26    22    21 ar
    27    19    20 ar
    28    21    20 ar
    29     1    26 1
    30     5    27 1
    31     8    28 1
    32    10    29 1
    33    12    30 1
    34    12    31 1
    35    14    32 1
    36    15    33 1
    37    17    34 1
    38    18    35 1
    39    19    36 1
    40    20    37 1
    41    21    38 1
@<TRIPOS>SUBSTRUCTURE
     1 SC8         1 TEMP              0 ****  ****    0 ROOT
