@<TRIPOS>MOLECULE
SC9
   38    41     1     0     0
SMALL
bcc


@<TRIPOS>ATOM
      1 C01          0.0000     0.0000     0.0000 cc         1 SC9      -0.440100
      2 N02          1.3610     0.0000     0.0000 na         1 SC9       0.692700
      3 C03          1.7650     0.0000     1.3120 cc         1 SC9      -0.418600
      4 N04          0.6830    -0.0000     2.0720 nd         1 SC9      -0.233600
      5 C05         -0.4000     0.0000     1.2940 cd         1 SC9       0.040600
      6 C06          2.3040    -0.0020    -0.9910 cc         1 SC9      -0.504600
      7 C07          3.6250    -0.0030    -0.6680 cd         1 SC9       0.524800
      8 N08          4.0250    -0.0040     0.6160 nd         1 SC9      -0.707000
      9 C09          3.1520    -0.0020     1.6010 cc         1 SC9       0.595200
     10 N10          3.5880    -0.0010     2.9170 nu         1 SC9      -0.456900
     11 C11          5.0240    -0.0030     3.2130 c3         1 SC9       0.224100
     12 C12          5.2280    -0.0020     4.7060 ca         1 SC9      -0.247600
     13 C13          5.3230    -1.1980     5.4020 ca         1 SC9      -0.049000
     14 C14          5.5110    -1.1480     6.7750 ca         1 SC9      -0.223300
     15 C15          5.5990     0.0820     7.3990 ca         1 SC9       0.413200
     16 N16          5.5050     1.1990     6.7050 nb         1 SC9      -0.582000
     17 C17          5.3310     1.1910     5.3980 ca         1 SC9       0.423200
     18 C18          4.6400    -0.0040    -1.7490 ca         1 SC9      -0.182500
     19 C19          5.9960     0.1130    -1.4370 ca         1 SC9       0.156900
     20 C20          6.9370     0.1110    -2.4490 ca         1 SC9      -0.144000
     21 C21          6.5360    -0.0070    -3.7680 ca         1 SC9      -0.063000
     22 C22          5.1950    -0.1250    -4.0820 ca         1 SC9      -0.119000
     23 C23          4.2460    -0.1290    -3.0800 ca         1 SC9      -0.068000
     24 F24          6.3870     0.2290    -0.1490 f          1 SC9      -0.116900
     25 H01         -0.6430     0.0000    -0.8720 h4         1 SC9       0.161000
     26 H05         -1.4270     0.0010     1.6390 h4         1 SC9       0.141000
     27 H06          2.0000    -0.0010    -2.0310 h4         1 SC9       0.157000
     28 HN10         2.9230     0.0130     3.6650 hn         1 SC9       0.314800
     29 H111         5.4810     0.8810     2.7850 h1         1 SC9       0.035700
     30 H112         5.4800    -0.8880     2.7870 h1         1 SC9       0.035700
     31 H13          5.2500    -2.1470     4.8860 ha         1 SC9       0.114000
     32 H14          5.5900    -2.0620     7.3510 ha         1 SC9       0.115000
     33 H15          5.7440     0.1290     8.4720 h4         1 SC9      -0.019900
     34 H17          5.2570     2.1290     4.8620 h4         1 SC9      -0.014900
     35 H20          7.9900     0.2030    -2.2100 ha         1 SC9       0.121000
     36 H21          7.2770    -0.0060    -4.5580 ha         1 SC9       0.106000
     37 H22          4.8880    -0.2190    -5.1170 ha         1 SC9       0.108000
     38 H23          3.1950    -0.2220    -3.3280 ha         1 SC9       0.111000
@<TRIPOS>BOND
     1     1     2 1   
     2     1     5 2   
     3     1    25 1   
     4     2     3 1   
     5     2     6 1   
     6     3     4 2   
     7     3     9 1   
     8     4     5 1   
     9     5    26 1   
    10     6     7 2   
    11     6    27 1   
    12     7     8 1   
    13     7    18 1   
    14     8     9 2   
    15     9    10 1   
    16    10    11 1   
    17    10    28 1   
    18    11    12 1   
    19    11    29 1   
    20    11    30 1   
    21    12    13 ar  
    22    12    17 ar  
    23    13    14 ar  
    24    13    31 1   
    25    14    15 ar  
    26    14    32 1   
    27    15    16 ar  
    28    15    33 1   
    29    16    17 ar  
    30    17    34 1   
    31    18    19 ar  
    32    18    23 ar  
    33    19    20 ar  
    34    19    24 1   
    35    20    21 ar  
    36    20    35 1   
    37    21    22 ar  
    38    21    36 1   
    39    22    23 ar  
    40    22    37 1   
    41    23    38 1   
@<TRIPOS>SUBSTRUCTURE
     1 SC9         1 TEMP              0 ****  ****    0 ROOT
