@<TRIPOS>MOLECULE
SCB
   51    54     1     0     0
SMALL
bcc


@<TRIPOS>ATOM
      1 C1         -0.2600    0.3310    0.2890 c3        1 SCB      0.116700
      2 O1          1.1120   -0.0030    0.1860 os        1 SCB     -0.409600
      3 C2          1.7890    0.0600    1.4370 c3        1 SCB      0.101400
      4 C3          3.2940   -0.0540    1.1490 c3        1 SCB      0.112000
      5 N1          3.9200    1.1600    0.6980 n         1 SCB     -0.395300
      6 C4          3.9970    2.2940    1.5270 c         1 SCB      0.706700
      7 O2          3.6400    2.2700    2.7170 o         1 SCB     -0.625500
      8 C5          4.5590    3.4730    0.8120 cc        1 SCB     -0.146600
      9 C6          4.7260    4.6470    1.4540 cf        1 SCB     -0.107800
     10 C7          5.2250    5.8590    0.8920 cd        1 SCB      0.239500
     11 C8          5.4710    7.1120    1.4450 cc        1 SCB     -0.207300
     12 C9          5.9570    7.9510    0.3890 cc        1 SCB     -0.300300
     13 C10         5.9850    7.1750   -0.7690 cd        1 SCB      0.385200
     14 O3          5.5410    5.8830   -0.4770 os        1 SCB     -0.340800
     15 C11         6.3560    7.4360   -2.1370 ca        1 SCB     -0.182500
     16 C12         6.7790    8.7220   -2.5130 ca        1 SCB     -0.121000
     17 C13         7.1200    8.9790   -3.8340 ca        1 SCB     -0.155000
     18 C14         7.0480    7.9560   -4.7930 ca        1 SCB      0.057400
     19 CL1         7.4590    8.3400   -6.3990 cl        1 SCB     -0.098400
     20 C15         6.6420    6.6670   -4.4350 ca        1 SCB     -0.099600
     21 C16         6.2910    6.4230   -3.1030 ca        1 SCB     -0.065000
     22 C17         6.5550    5.4960   -5.4120 c         1 SCB      0.914200
     23 O4          5.4030    5.0320   -5.6480 o         1 SCB     -0.812800
     24 O5          7.6250    5.0280   -5.8790 o         1 SCB     -0.812800
     25 S1          4.8870    3.0740   -0.8010 ss        1 SCB     -0.068800
     26 C18         4.3790    1.3820   -0.6320 cc        1 SCB      0.489800
     27 N2          4.4370    0.4410   -1.5210 nf        1 SCB     -0.596100
     28 C19         4.9440    0.6260   -2.8200 ca        1 SCB      0.125400
     29 C20         5.3850   -0.5340   -3.5020 ca        1 SCB     -0.135500
     30 C21         5.9050   -0.4340   -4.7870 ca        1 SCB     -0.121000
     31 C22         5.9990    0.8040   -5.4240 ca        1 SCB     -0.127000
     32 C23         5.5530    1.9540   -4.7760 ca        1 SCB     -0.121000
     33 C24         5.0230    1.8670   -3.4900 ca        1 SCB     -0.135500
     34 H11        -0.6480    0.2410   -0.7560 h1        1 SCB      0.029700
     35 H12A       -0.7900   -0.3830    0.9680 h1        1 SCB      0.029700
     36 H13A       -0.3890    1.3760    0.6650 h1        1 SCB      0.029700
     37 H21A        1.4730   -0.8140    2.0670 h1        1 SCB      0.037700
     38 H22A        1.5430    1.0120    1.9760 h1        1 SCB      0.037700
     39 H31         3.4530   -0.8690    0.3880 h1        1 SCB      0.077200
     40 H32         3.7900   -0.3480    2.1200 h1        1 SCB      0.077200
     41 H6          4.4530    4.7150    2.5260 ha        1 SCB      0.156000
     42 H8          5.3250    7.4060    2.4810 ha        1 SCB      0.152000
     43 H9          6.2450    8.9940    0.4790 ha        1 SCB      0.157000
     44 H12         6.8370    9.5230   -1.7630 ha        1 SCB      0.118000
     45 H13         7.4460    9.9880   -4.1280 ha        1 SCB      0.127000
     46 H16         5.9480    5.4130   -2.8240 ha        1 SCB      0.157000
     47 H20         5.3230   -1.5180   -3.0140 ha        1 SCB      0.138000
     48 H21         6.2490   -1.3430   -5.3020 ha        1 SCB      0.169500
     49 H22         6.4270    0.8790   -6.4340 ha        1 SCB      0.137000
     50 H23         5.6250    2.9500   -5.2730 ha        1 SCB      0.169500
     51 H24         4.6400    2.7980   -3.0330 ha        1 SCB      0.138000
@<TRIPOS>BOND
     1    1    2 1   
     2    1   34 1   
     3    1   35 1   
     4    1   36 1   
     5    2    3 1   
     6    3    4 1   
     7    3   37 1   
     8    3   38 1   
     9    4    5 1   
    10    4   39 1   
    11    4   40 1   
    12    5    6 1   
    13    5   26 1   
    14    6    7 2   
    15    6    8 1   
    16    8    9 2   
    17    8   25 1   
    18    9   10 1   
    19    9   41 1   
    20   10   11 2   
    21   10   14 1   
    22   11   12 1   
    23   11   42 1   
    24   12   13 2   
    25   12   43 1   
    26   13   14 1   
    27   13   15 1   
    28   15   16 ar  
    29   15   21 ar  
    30   16   17 ar  
    31   16   44 1   
    32   17   18 ar  
    33   17   45 1   
    34   18   19 1   
    35   18   20 ar  
    36   20   21 ar  
    37   20   22 1   
    38   21   46 1   
    39   22   23 1   
    40   22   24 1   
    41   25   26 1   
    42   26   27 2   
    43   27   28 1   
    44   28   29 ar  
    45   28   33 ar  
    46   29   30 ar  
    47   29   47 1   
    48   30   31 ar  
    49   30   48 1   
    50   31   32 ar  
    51   31   49 1   
    52   32   33 ar  
    53   32   50 1   
    54   33   51 1   
@<TRIPOS>SUBSTRUCTURE
     1 SCB         1 TEMP              0 ****  ****    0 ROOT
