@<TRIPOS>MOLECULE
molecule
    9     8     1     0     0
SMALL
bcc


@<TRIPOS>ATOM
      1 S            0.0000     0.0000     0.0000 sh         1 SCC      -0.436900
      2 C1           1.8140     0.0000     0.0000 c3         1 SCC       0.044700
      3 C2           2.3230     0.0000     1.4430 c3         1 SCC      -0.077100
      4 H11          2.1750    -0.8850    -0.5110 h1         1 SCC       0.053700
      5 H12          2.1750     0.8850    -0.5110 h1         1 SCC       0.053700
      6 H21          1.9620     0.8850     1.9540 hc         1 SCC       0.048033
      7 H22          3.4070     0.0000     1.4440 hc         1 SCC       0.048033
      8 H23          1.9620    -0.8850     1.9540 hc         1 SCC       0.048033
      9 HS1         -0.4430    -0.0000    -1.2520 hs         1 SCC       0.217800
@<TRIPOS>BOND
     1     1     2 1
     2     2     3 1
     3     2     4 1
     4     2     5 1
     5     3     6 1
     6     3     7 1
     7     3     8 1
     8     9     1 1
@<TRIPOS>SUBSTRUCTURE
     1 SCC         1 TEMP              0 ****  ****    0 ROOT
