@<TRIPOS>MOLECULE
SCC
    9     8     1     0     0
SMALL
bcc


@<TRIPOS>ATOM
      1 S           0.0070    0.0010    0.0810 sh        1 SCC     -0.383900
      2 C1          1.7790   -0.0000    0.0010 c3        1 SCC      0.012700
      3 C2          2.2900    0.0000    1.4110 c3        1 SCC     -0.088100
      4 H11         2.1390    0.9020   -0.5490 h1        1 SCC      0.057700
      5 H12         2.1390   -0.9030   -0.5480 h1        1 SCC      0.057700
      6 H21         3.4080    0.0000    1.4120 hc        1 SCC      0.048033
      7 H22         1.9380    0.9070    1.9620 hc        1 SCC      0.048033
      8 H23         1.9380   -0.9060    1.9620 hc        1 SCC      0.048033
      9 HS1        -0.2630   -0.0010   -1.2110 hs        1 SCC      0.198800
@<TRIPOS>BOND
     1    1    2 1   
     2    1    9 1   
     3    2    3 1   
     4    2    4 1   
     5    2    5 1   
     6    3    6 1   
     7    3    7 1   
     8    3    8 1   
@<TRIPOS>SUBSTRUCTURE
     1 SCC         1 TEMP              0 ****  ****    0 ROOT
