@<TRIPOS>MOLECULE
molecule
   31    33     1     0     0
SMALL
bcc


@<TRIPOS>ATOM
      1 C01          0.0000     0.0000     0.0000 cc         1 SCE      -0.181300
      2 N02          1.3600     0.0000     0.0000 na         1 SCE       0.082700
      3 C03          1.7650     0.0000     1.3110 cd         1 SCE      -0.186600
      4 N04          0.6850    -0.0010     2.0720 nc         1 SCE      -0.299600
      5 C05         -0.3990     0.0050     1.2950 cc         1 SCE       0.022600
      6 C06          2.3070     0.0010    -0.9920 cd         1 SCE      -0.281600
      7 C07          3.6160     0.0010    -0.6720 cc         1 SCE       0.438200
      8 N08          4.0200     0.0010     0.6030 nc         1 SCE      -0.793000
      9 C09          3.1530     0.0010     1.5950 cd         1 SCE       0.759200
     10 N10          3.5970     0.0010     2.9090 nu         1 SCE      -0.888900
     11 C11          5.0320     0.0010     3.1980 c3         1 SCE       0.288100
     12 C12          5.2450     0.0010     4.6890 ca         1 SCE      -0.084300
     13 C13          5.3460    -1.1900     5.3910 ca         1 SCE      -0.237300
     14 C14          5.5420    -1.1510     6.7590 ca         1 SCE       0.418200
     15 N15          5.6320     0.0010     7.3950 nb         1 SCE      -0.684000
     16 C16          5.5410     1.1530     6.7590 ca         1 SCE       0.418200
     17 C17          5.3510     1.1920     5.3910 ca         1 SCE      -0.237300
     18 C18         -0.8950     0.0000    -1.2120 c3         1 SCE      -0.013900
     19 H05         -1.4260     0.0130     1.6400 h4         1 SCE       0.184000
     20 H06          2.0030     0.0010    -2.0320 h4         1 SCE       0.162000
     21 H07          4.3550     0.0010    -1.4640 h4         1 SCE       0.035100
     22 HN10         2.9350     0.0010     3.6600 hn         1 SCE       0.469800
     23 H111         5.4870    -0.8830     2.7680 h1         1 SCE       0.061700
     24 H112         5.4870     0.8850     2.7680 h1         1 SCE       0.061700
     25 H13          5.2730    -2.1390     4.8750 ha         1 SCE       0.144000
     26 H14          5.6210    -2.0770     7.3150 h4         1 SCE       0.026100
     27 H16          5.6220     2.0790     7.3150 h4         1 SCE       0.026100
     28 H17          5.2760     2.1410     4.8740 ha         1 SCE       0.144000
     29 H181        -1.9310    -0.0030    -0.8960 hc         1 SCE       0.048367
     30 H182        -0.6970    -0.8830    -1.8080 hc         1 SCE       0.048367
     31 H183        -0.7020     0.8860    -1.8040 hc         1 SCE       0.048367
@<TRIPOS>BOND
     1    16    15 ar
     2    16    17 ar
     3    15    14 ar
     4    17    12 ar
     5    14    13 ar
     6    12    13 ar
     7    12    11 1
     8    10    11 1
     9    10     9 1
    10     4     5 1
    11     4     3 2
    12     5     1 2
    13     3     9 1
    14     3     2 1
    15     9     8 2
    16     1     2 1
    17     1    18 1
    18     2     6 1
    19     8     7 1
    20     7     6 2
    21     5    19 1
    22     6    20 1
    23     7    21 1
    24    10    22 1
    25    11    23 1
    26    11    24 1
    27    13    25 1
    28    14    26 1
    29    16    27 1
    30    17    28 1
    31    18    29 1
    32    18    30 1
    33    18    31 1
@<TRIPOS>SUBSTRUCTURE
     1 SCE         1 TEMP              0 ****  ****    0 ROOT
