@<TRIPOS>MOLECULE
molecule
   38    41     1     0     0
SMALL
bcc


@<TRIPOS>ATOM
      1 C01          0.0000     0.0000     0.0000 cc         1 SCF      -0.379600
      2 C02          1.3890     0.0000     0.0000 cd         1 SCF       0.445500
      3 N03          1.7870     0.0000     1.3120 na         1 SCF      -0.002800
      4 N04          0.6340     0.0000     2.1060 nc         1 SCF      -0.598100
      5 C05         -0.4200     0.0060     1.3240 cd         1 SCF       0.422500
      6 N06          2.2920     0.0000    -0.9890 nd         1 SCF      -0.706000
      7 C07          3.5890    -0.0010    -0.7250 cc         1 SCF       0.564800
      8 C08          4.0380    -0.0020     0.6080 cd         1 SCF      -0.423300
      9 C09          3.1230    -0.0010     1.6220 cc         1 SCF       0.334300
     10 N10          3.5370     0.0000     2.9380 nu         1 SCF      -0.799600
     11 C11          4.5690    -0.0010    -1.8350 ca         1 SCF      -0.195500
     12 C12          4.9660    -0.0010     3.2560 c3         1 SCF       0.287100
     13 C13          5.1480    -0.0010     4.7520 ca         1 SCF      -0.086300
     14 C14          5.2330    -1.1920     5.4570 ca         1 SCF      -0.235800
     15 C15          5.3990    -1.1510     6.8280 ca         1 SCF       0.421200
     16 N16          5.4770     0.0010     7.4650 nb         1 SCF      -0.679000
     17 C17          5.4010     1.1530     6.8270 ca         1 SCF       0.421200
     18 C18          5.2400     1.1900     5.4550 ca         1 SCF      -0.235800
     19 C19          5.9370    -0.0080    -1.5620 ca         1 SCF      -0.081000
     20 C20          6.8450    -0.0080    -2.6010 ca         1 SCF      -0.156000
     21 C21          6.4040    -0.0020    -3.9110 ca         1 SCF      -0.086000
     22 C22          5.0490     0.0040    -4.1920 ca         1 SCF      -0.181000
     23 C23          4.1280    -0.0010    -3.1600 ca         1 SCF       0.184900
     24 F24          2.8060     0.0000    -3.4340 f          1 SCF      -0.105900
     25 H01         -0.6400     0.0030    -0.8740 ha         1 SCF       0.173000
     26 H05         -1.4510     0.0130     1.6570 h4         1 SCF       0.059800
     27 H08          5.0990    -0.0020     0.8280 ha         1 SCF       0.155000
     28 HN10         2.8600     0.0020     3.6750 hn         1 SCF       0.469800
     29 H121         5.4290    -0.8860     2.8360 h1         1 SCF       0.054700
     30 H122         5.4300     0.8830     2.8360 h1         1 SCF       0.054700
     31 H14          5.1690    -2.1410     4.9400 ha         1 SCF       0.144500
     32 H15          5.4660    -2.0770     7.3870 h4         1 SCF       0.029100
     33 H17          5.4710     2.0790     7.3840 h4         1 SCF       0.029100
     34 H18          5.1770     2.1390     4.9360 ha         1 SCF       0.144500
     35 H19          6.2860    -0.0120    -0.5360 ha         1 SCF       0.136000
     36 H20          7.9080    -0.0140    -2.3900 ha         1 SCF       0.136000
     37 H21          7.1220    -0.0010    -4.7220 ha         1 SCF       0.137000
     38 H22          4.7100     0.0070    -5.2210 ha         1 SCF       0.149000
@<TRIPOS>BOND
     1    17    16 ar
     2    17    18 ar
     3    16    15 ar
     4    18    13 ar
     5    15    14 ar
     6    13    14 ar
     7    13    12 1
     8    10    12 1
     9    10     9 1
    10     4     5 2
    11     4     3 1
    12     5     1 1
    13     3     9 1
    14     3     2 1
    15     9     8 2
    16     1     2 2
    17     8     7 1
    18     2     6 1
    19     7     6 2
    20     7    11 1
    21    19    11 ar
    22    19    20 ar
    23    11    23 ar
    24    20    21 ar
    25    23    24 1
    26    23    22 ar
    27    21    22 ar
    28     1    25 1
    29     5    26 1
    30     8    27 1
    31    10    28 1
    32    12    29 1
    33    12    30 1
    34    14    31 1
    35    15    32 1
    36    17    33 1
    37    18    34 1
    38    19    35 1
    39    20    36 1
    40    21    37 1
    41    22    38 1
@<TRIPOS>SUBSTRUCTURE
     1 SCF         1 TEMP              0 ****  ****    0 ROOT
