@<TRIPOS>MOLECULE
molecule
   51    52     1     0     0
SMALL
bcc


@<TRIPOS>ATOM
      1 O16          0.0000     0.0000     0.0000 o          1 SCG      -0.521100
      2 C10          1.2070     0.0000     0.0000 c          1 SCG       0.569900
      3 C9           1.9610     0.0000     1.3050 c3         1 SCG      -0.211400
      4 C1           2.9360    -1.1790     1.3300 c3         1 SCG       0.010500
      5 C6           3.9720    -1.0070     0.2130 c3         1 SCG      -0.064500
      6 C7           4.5430     0.3870     0.2490 c2         1 SCG      -0.169200
      7 C8           4.4300     1.1680    -0.7970 c2         1 SCG      -0.212000
      8 C5           5.0950    -2.0290     0.4360 c3         1 SCG       0.330900
      9 O4           5.7110    -1.7460     1.7230 os         1 SCG      -0.345900
     10 C3           4.9300    -1.4940     2.7900 c2         1 SCG       0.157100
     11 C2           3.6270    -1.2170     2.6650 ce         1 SCG      -0.313400
     12 C12          2.8700    -0.9550     3.8320 c          1 SCG       0.653300
     13 O14          1.5330    -0.8030     3.7490 os         1 SCG      -0.390900
     14 C15          1.0470    -0.6760     5.0870 c3         1 SCG       0.110700
     15 O13          3.4270    -0.8660     4.9110 o          1 SCG      -0.574000
     16 O11          4.5530    -3.3520     0.4400 os         1 SCG      -0.382600
     17 C17          5.6560    -4.2510     0.5680 c3         1 SCG       0.319900
     18 O22          6.4830    -4.1520    -0.5890 os         1 SCG      -0.413600
     19 C21          7.6590    -4.9230    -0.3470 c3         1 SCG       0.141100
     20 C23          8.6600    -4.6950    -1.4800 c3         1 SCG       0.149400
     21 O24          9.0920    -3.3330    -1.4680 oh         1 SCG      -0.602800
     22 C20          7.2990    -6.4090    -0.2790 c3         1 SCG       0.101100
     23 O25          8.4840    -7.1780    -0.0640 oh         1 SCG      -0.601800
     24 C19          6.3220    -6.6340     0.8800 c3         1 SCG       0.107100
     25 O26          5.8630    -7.9870     0.8640 oh         1 SCG      -0.604800
     26 C18          5.1330    -5.6820     0.7080 c3         1 SCG       0.120100
     27 O27          4.2810    -5.7690     1.8530 oh         1 SCG      -0.590800
     28 H10          1.7490     0.0500    -0.9370 h4         1 SCG      -0.013800
     29 H91          2.5120     0.9270     1.4030 hc         1 SCG       0.090700
     30 H92          1.2610    -0.0930     2.1260 hc         1 SCG       0.090700
     31 H1           2.3950    -2.1050     1.1790 hc         1 SCG       0.082700
     32 H6           3.5030    -1.1890    -0.7470 hc         1 SCG       0.076700
     33 H7           5.0480     0.7430     1.1390 ha         1 SCG       0.140000
     34 H81          4.8400     2.1710    -0.7710 ha         1 SCG       0.116500
     35 H82          3.9260     0.8120    -1.6870 ha         1 SCG       0.116500
     36 H5           5.8350    -1.9350    -0.3500 h2         1 SCG       0.120700
     37 H3           5.3700    -1.5150     3.7790 h4         1 SCG       0.198000
     38 H151         1.3290    -1.5520     5.6580 h1         1 SCG       0.051033
     39 H152         1.4770     0.2070     5.5440 h1         1 SCG       0.051033
     40 H153        -0.0320    -0.5870     5.0720 h1         1 SCG       0.051033
     41 H17          6.2360    -3.9930     1.4460 h2         1 SCG       0.064700
     42 H21          8.0990    -4.6180     0.5950 h1         1 SCG       0.068700
     43 H231         9.5150    -5.3460    -1.3440 h1         1 SCG       0.038700
     44 H232         8.1860    -4.9150    -2.4300 h1         1 SCG       0.038700
     45 H24          9.8260    -3.2300    -2.0500 ho         1 SCG       0.406000
     46 H20          6.8310    -6.7090    -1.2090 h1         1 SCG       0.060700
     47 H25          8.4880    -7.9210    -0.6450 ho         1 SCG       0.415000
     48 H19          6.8200    -6.4250     1.8190 h1         1 SCG       0.064700
     49 H26          6.1590    -8.4290     1.6420 ho         1 SCG       0.416000
     50 H18          4.5790    -5.9530    -0.1830 h1         1 SCG       0.066700
     51 H27          3.5910    -6.3880     1.6850 ho         1 SCG       0.417000
@<TRIPOS>BOND
     1     1     2 2
     2     2     3 1
     3     2    28 1
     4     3     4 1
     5     3    29 1
     6     3    30 1
     7     4     5 1
     8     4    11 1
     9     4    31 1
    10     5     6 1
    11     5     8 1
    12     5    32 1
    13     6     7 2
    14     6    33 1
    15     7    34 1
    16     7    35 1
    17     8     9 1
    18     8    16 1
    19     8    36 1
    20     9    10 1
    21    10    11 2
    22    10    37 1
    23    11    12 1
    24    12    13 1
    25    12    15 2
    26    13    14 1
    27    14    38 1
    28    14    39 1
    29    14    40 1
    30    16    17 1
    31    17    18 1
    32    17    26 1
    33    17    41 1
    34    18    19 1
    35    19    20 1
    36    19    22 1
    37    19    42 1
    38    20    21 1
    39    20    43 1
    40    20    44 1
    41    21    45 1
    42    22    23 1
    43    22    24 1
    44    22    46 1
    45    23    47 1
    46    24    25 1
    47    24    26 1
    48    24    48 1
    49    25    49 1
    50    26    27 1
    51    26    50 1
    52    27    51 1
@<TRIPOS>SUBSTRUCTURE
     1 SCG         1 TEMP              0 ****  ****    0 ROOT
