@<TRIPOS>MOLECULE
SCG
   51    52     1     0     0
SMALL
bcc


@<TRIPOS>ATOM
      1 O16         0.7150    0.3780   -0.8350 o         1 SCG     -0.528100
      2 C10         1.2940   -0.4690   -0.1540 c         1 SCG      0.567900
      3 C9          1.9730   -0.1440    1.1410 c3        1 SCG     -0.203400
      4 C1          3.0630   -1.1490    1.4800 c3        1 SCG      0.018500
      5 C6          4.2240   -1.0330    0.4790 c3        1 SCG     -0.050500
      6 C7          4.6960    0.3700    0.2980 c2        1 SCG     -0.184200
      7 C8          4.8500    0.9500   -0.8890 c2        1 SCG     -0.192000
      8 C5          5.4130   -1.8870    0.9380 c3        1 SCG      0.331900
      9 O4          5.8240   -1.6490    2.2870 os        1 SCG     -0.342900
     10 C3          4.8660   -1.2730    3.1810 c2        1 SCG      0.126100
     11 C2          3.5680   -1.0290    2.8780 ce        1 SCG     -0.272400
     12 C12         2.6710   -0.7220    3.9960 c         1 SCG      0.654300
     13 O14         1.3860   -1.1800    3.8540 os        1 SCG     -0.439900
     14 C15         0.4950   -0.9220    4.9410 c3        1 SCG      0.125700
     15 O13         2.9550   -0.1470    5.0530 o         1 SCG     -0.551000
     16 O11         5.0020   -3.2440    0.9380 os        1 SCG     -0.435600
     17 C17         6.0630   -4.1820    0.9440 c3        1 SCG      0.305900
     18 O22         6.6360   -4.0010   -0.3440 os        1 SCG     -0.438600
     19 C21         7.6840   -4.9350   -0.6200 c3        1 SCG      0.149100
     20 C23         8.2150   -4.5850   -2.0110 c3        1 SCG      0.134400
     21 O24         9.1760   -3.5580   -1.8350 oh        1 SCG     -0.598800
     22 C20         7.1150   -6.3650   -0.5960 c3        1 SCG      0.118100
     23 O25         8.1940   -7.2520   -0.8320 oh        1 SCG     -0.594800
     24 C19         6.4800   -6.6460    0.7780 c3        1 SCG      0.109100
     25 O26         5.8900   -7.9310    0.6920 oh        1 SCG     -0.605800
     26 C18         5.4230   -5.5760    1.0870 c3        1 SCG      0.089100
     27 O27         4.9980   -5.7990    2.4190 oh        1 SCG     -0.601800
     28 H10         1.3240   -1.5390   -0.4620 h4        1 SCG     -0.006800
     29 H91         2.3950    0.8950    1.1060 hc        1 SCG      0.091200
     30 H92         1.1790   -0.1560    1.9400 hc        1 SCG      0.091200
     31 H1          2.6340   -2.1910    1.3740 hc        1 SCG      0.072700
     32 H6          3.8730   -1.4540   -0.5050 hc        1 SCG      0.082700
     33 H7          4.9200    0.9020    1.2380 ha        1 SCG      0.135000
     34 H81         4.6330    0.4420   -1.8380 ha        1 SCG      0.119000
     35 H82         5.2030    1.9860   -0.9880 ha        1 SCG      0.119000
     36 H5          6.3430   -1.7180    0.3250 h2        1 SCG      0.119700
     37 H3          5.3060   -1.1860    4.1930 h4        1 SCG      0.188000
     38 H151        0.8760   -1.4110    5.8690 h1        1 SCG      0.052700
     39 H152       -0.4690   -1.3750    4.6030 h1        1 SCG      0.052700
     40 H153        0.3990    0.1790    5.1020 h1        1 SCG      0.052700
     41 H17         6.8080   -3.9660    1.7580 h2        1 SCG      0.073700
     42 H21         8.5020   -4.8280    0.1450 h1        1 SCG      0.079700
     43 H231        8.6980   -5.4970   -2.4550 h1        1 SCG      0.048700
     44 H232        7.3780   -4.2290   -2.6690 h1        1 SCG      0.048700
     45 H24         9.4940   -3.3280   -2.7160 ho        1 SCG      0.405000
     46 H20         6.3370   -6.4890   -1.3990 h1        1 SCG      0.062700
     47 H25         7.8460   -8.1450   -0.7010 ho        1 SCG      0.427000
     48 H19         7.2700   -6.6460    1.5810 h1        1 SCG      0.066700
     49 H26         5.4360   -8.0820    1.5320 ho        1 SCG      0.428000
     50 H18         4.5520   -5.6700    0.3810 h1        1 SCG      0.075700
     51 H27         4.3400   -5.1190    2.6160 ho        1 SCG      0.425000
@<TRIPOS>BOND
     1    1    2 2   
     2    2    3 1   
     3    2   28 1   
     4    3    4 1   
     5    3   29 1   
     6    3   30 1   
     7    4    5 1   
     8    4   11 1   
     9    4   31 1   
    10    5    6 1   
    11    5    8 1   
    12    5   32 1   
    13    6    7 2   
    14    6   33 1   
    15    7   34 1   
    16    7   35 1   
    17    8    9 1   
    18    8   16 1   
    19    8   36 1   
    20    9   10 1   
    21   10   11 2   
    22   10   37 1   
    23   11   12 1   
    24   12   13 1   
    25   12   15 2   
    26   13   14 1   
    27   14   38 1   
    28   14   39 1   
    29   14   40 1   
    30   16   17 1   
    31   17   18 1   
    32   17   26 1   
    33   17   41 1   
    34   18   19 1   
    35   19   20 1   
    36   19   22 1   
    37   19   42 1   
    38   20   21 1   
    39   20   43 1   
    40   20   44 1   
    41   21   45 1   
    42   22   23 1   
    43   22   24 1   
    44   22   46 1   
    45   23   47 1   
    46   24   25 1   
    47   24   26 1   
    48   24   48 1   
    49   25   49 1   
    50   26   27 1   
    51   26   50 1   
    52   27   51 1   
@<TRIPOS>SUBSTRUCTURE
     1 SCG         1 TEMP              0 ****  ****    0 ROOT
