@<TRIPOS>MOLECULE
SCI
   26    25     1     0     0
SMALL
bcc


@<TRIPOS>ATOM
      1 N            0.0000     0.0000     0.0000 nz         1 SCI       0.082400
      2 CA           1.4690     0.0000     0.0000 c3         1 SCI      -0.202500
      3 CB           1.9780     0.0000     1.4420 c3         1 SCI      -0.017400
      4 CG           1.4680     1.2480     2.1640 c3         1 SCI      -0.036400
      5 CD           1.9780     1.2480     3.6060 c3         1 SCI       0.099800
      6 NE           1.4890     2.4440     4.2960 n2         1 SCI      -0.289900
      7 CZ           0.7390     2.3230     5.3570 c2         1 SCI       0.116100
      8 NH1          0.2800     3.4470     6.0060 nz         1 SCI       0.177400
      9 S            0.3140     0.7240     5.9580 sh         1 SCI      -0.208000
     10 C            1.9710    -1.2290    -0.7110 c          1 SCI       0.943600
     11 OT1          1.3200    -2.2470    -0.6930 o          1 SCI      -0.796800
     12 OT2          3.1440    -1.1960    -1.3620 o          1 SCI      -0.796800
     13 HN1         -0.3340    -0.3720    -0.8670 hn         1 SCI       0.211800
     14 HN2         -0.3340    -0.5650     0.7550 hn         1 SCI       0.211800
     15 HA           1.8300     0.8850    -0.5100 hx         1 SCI       0.092700
     16 HB1          3.0610     0.0000     1.4430 hc         1 SCI       0.061700
     17 HB2          1.6170    -0.8850     1.9530 hc         1 SCI       0.061700
     18 HG1          0.3850     1.2480     2.1640 hc         1 SCI       0.015200
     19 HG2          1.8300     2.1330     1.6540 hc         1 SCI       0.015200
     20 HD1          1.6160     0.3630     4.1160 h1         1 SCI       0.076700
     21 HD2          3.0610     1.2480     3.6060 h1         1 SCI       0.076700
     22 HN11         0.3680     4.2400     5.4020 hn         1 SCI       0.223133
     23 HN12        -0.6810     3.3200     6.2530 hn         1 SCI       0.223133
     24 HS           0.4700     0.6910     7.2760 hs         1 SCI       0.221800
     25 HN3         -0.3340     0.9370     0.1140 hn         1 SCI       0.211800
     26 HH13         0.8180     3.5950     6.8370 hn         1 SCI       0.223133
@<TRIPOS>BOND
     1     1     2 1   
     2     1    13 1   
     3     1    14 1   
     4     1    25 1   
     5     2     3 1   
     6     2    10 1   
     7     2    15 1   
     8     3     4 1   
     9     3    16 1   
    10     3    17 1   
    11     4     5 1   
    12     4    18 1   
    13     4    19 1   
    14     5     6 1   
    15     5    20 1   
    16     5    21 1   
    17     6     7 2   
    18     7     8 1   
    19     7     9 1   
    20     8    22 1   
    21     8    23 1   
    22     8    26 1   
    23     9    24 1   
    24    10    11 1   
    25    10    12 1   
@<TRIPOS>SUBSTRUCTURE
     1 SCI         1 TEMP              0 ****  ****    0 ROOT
