@<TRIPOS>MOLECULE
molecule
   38    41     1     0     0
SMALL
bcc


@<TRIPOS>ATOM
      1 C01          0.0000     0.0000     0.0000 cc         1 SCJ      -0.297900
      2 C02          1.3900     0.0000     0.0000 cd         1 SCJ       0.477500
      3 N03          1.7880     0.0000     1.3130 na         1 SCJ       0.001200
      4 N04          0.6350     0.0000     2.1060 nc         1 SCJ      -0.592100
      5 C05         -0.4200     0.0060     1.3230 cd         1 SCJ       0.455500
      6 N06          2.2930    -0.0010    -0.9880 nd         1 SCJ      -0.721000
      7 C07          3.5900    -0.0020    -0.7250 cc         1 SCJ       0.581800
      8 C08          4.0390    -0.0020     0.6090 cd         1 SCJ      -0.421300
      9 C09          3.1240    -0.0000     1.6210 cc         1 SCJ       0.335300
     10 N10          3.5380     0.0000     2.9370 nu         1 SCJ      -0.798600
     11 C11          4.5710    -0.0030    -1.8350 ca         1 SCJ      -0.162500
     12 C12          4.9680    -0.0000     3.2560 c3         1 SCJ       0.292100
     13 C13          5.1490     0.0010     4.7520 ca         1 SCJ      -0.252600
     14 C14          5.2330    -1.1910     5.4480 ca         1 SCJ       0.442200
     15 N15          5.3910    -1.1980     6.7570 nb         1 SCJ      -0.687000
     16 C16          5.4750    -0.0810     7.4510 ca         1 SCJ       0.434200
     17 C17          5.4000     1.1490     6.8240 ca         1 SCJ      -0.256300
     18 C18          5.2390     1.1960     5.4480 ca         1 SCJ      -0.072000
     19 C19          4.1300    -0.0040    -3.1580 ca         1 SCJ      -0.089000
     20 C20          5.0480    -0.0060    -4.1880 ca         1 SCJ      -0.139000
     21 C21          6.4030    -0.0060    -3.9110 ca         1 SCJ      -0.108000
     22 C22          6.8460    -0.0050    -2.6010 ca         1 SCJ      -0.139000
     23 C23          5.9380     0.0010    -1.5620 ca         1 SCJ      -0.089000
     24 Br24        -1.1170     0.0010    -1.5260 br         1 SCJ      -0.040700
     25 H05         -1.4510     0.0150     1.6560 h4         1 SCJ       0.069800
     26 H08          5.1000    -0.0020     0.8290 ha         1 SCJ       0.160000
     27 HN10         2.8610    -0.0010     3.6750 hn         1 SCJ       0.469800
     28 H121         5.4320     0.8840     2.8350 h1         1 SCJ       0.054200
     29 H122         5.4310    -0.8850     2.8370 h1         1 SCJ       0.054200
     30 H14          5.1680    -2.1290     4.9110 h4         1 SCJ       0.029100
     31 H16          5.6040    -0.1270     8.5260 h4         1 SCJ       0.029100
     32 H17          5.4720     2.0630     7.4000 ha         1 SCJ       0.145000
     33 H18          5.1770     2.1460     4.9300 ha         1 SCJ       0.144000
     34 H19          3.0690    -0.0040    -3.3770 ha         1 SCJ       0.145000
     35 H20          4.7070    -0.0060    -5.2160 ha         1 SCJ       0.134000
     36 H21          7.1200    -0.0090    -4.7240 ha         1 SCJ       0.131000
     37 H22          7.9090    -0.0030    -2.3900 ha         1 SCJ       0.134000
     38 H23          6.2860     0.0020    -0.5360 ha         1 SCJ       0.145000
@<TRIPOS>BOND
     1    17    16 ar
     2    17    18 ar
     3    16    15 ar
     4    18    13 ar
     5    15    14 ar
     6    13    14 ar
     7    13    12 1
     8     4     5 2
     9     4     3 1
    10    10    12 1
    11    10     9 1
    12     5     1 1
    13     3     9 1
    14     3     2 1
    15     9     8 2
    16     1     2 2
    17     1    24 1
    18     2     6 1
    19     8     7 1
    20     6     7 2
    21     7    11 1
    22    23    11 ar
    23    23    22 ar
    24    11    19 ar
    25    22    21 ar
    26    19    20 ar
    27    21    20 ar
    28     5    25 1
    29     8    26 1
    30    10    27 1
    31    12    28 1
    32    12    29 1
    33    14    30 1
    34    16    31 1
    35    17    32 1
    36    18    33 1
    37    19    34 1
    38    20    35 1
    39    21    36 1
    40    22    37 1
    41    23    38 1
@<TRIPOS>SUBSTRUCTURE
     1 SCJ         1 TEMP              0 ****  ****    0 ROOT
