@<TRIPOS>MOLECULE
SCJ
   38    41     1     0     0
SMALL
bcc


@<TRIPOS>ATOM
      1 C01          0.0000     0.0000     0.0000 cc         1 SCJ      -0.274900
      2 C02          1.3900     0.0000     0.0000 cd         1 SCJ       0.263500
      3 N03          1.7880     0.0000     1.3130 na         1 SCJ       0.487200
      4 N04          0.6350     0.0000     2.1060 nd         1 SCJ      -0.760100
      5 C05         -0.4200     0.0060     1.3230 cc         1 SCJ       0.521500
      6 N06          2.2930    -0.0010    -0.9880 nd         1 SCJ      -0.593000
      7 C07          3.5900    -0.0020    -0.7250 cc         1 SCJ       0.523800
      8 C08          4.0390    -0.0020     0.6090 cc         1 SCJ      -0.395300
      9 C09          3.1240    -0.0000     1.6210 cd         1 SCJ       0.007300
     10 N10          3.5380     0.0000     2.9370 nu         1 SCJ      -0.381600
     11 C11          4.5710    -0.0030    -1.8350 ca         1 SCJ      -0.166500
     12 C12          4.9680    -0.0000     3.2560 c3         1 SCJ       0.233100
     13 C13          5.1490     0.0010     4.7520 ca         1 SCJ      -0.254600
     14 C14          5.2330    -1.1910     5.4480 ca         1 SCJ       0.427200
     15 N15          5.3910    -1.1980     6.7570 nb         1 SCJ      -0.578000
     16 C16          5.4750    -0.0810     7.4510 ca         1 SCJ       0.419200
     17 C17          5.4000     1.1490     6.8240 ca         1 SCJ      -0.220300
     18 C18          5.2390     1.1960     5.4480 ca         1 SCJ      -0.046000
     19 C19          4.1300    -0.0040    -3.1580 ca         1 SCJ      -0.070500
     20 C20          5.0480    -0.0060    -4.1880 ca         1 SCJ      -0.110500
     21 C21          6.4030    -0.0060    -3.9110 ca         1 SCJ      -0.085000
     22 C22          6.8460    -0.0050    -2.6010 ca         1 SCJ      -0.110500
     23 C23          5.9380     0.0010    -1.5620 ca         1 SCJ      -0.070500
     24 Br24        -1.1170     0.0010    -1.5260 br         1 SCJ      -0.049700
     25 H05         -1.4510     0.0150     1.6560 h4         1 SCJ       0.018800
     26 H08          5.1000    -0.0020     0.8290 ha         1 SCJ       0.151000
     27 HN10         2.8610    -0.0010     3.6750 hn         1 SCJ       0.319800
     28 H121         5.4320     0.8840     2.8350 h1         1 SCJ       0.024700
     29 H122         5.4310    -0.8850     2.8370 h1         1 SCJ       0.024700
     30 H14          5.1680    -2.1290     4.9110 h4         1 SCJ      -0.014900
     31 H16          5.6040    -0.1270     8.5260 h4         1 SCJ      -0.016900
     32 H17          5.4720     2.0630     7.4000 ha         1 SCJ       0.118000
     33 H18          5.1770     2.1460     4.9300 ha         1 SCJ       0.114000
     34 H19          3.0690    -0.0040    -3.3770 ha         1 SCJ       0.117000
     35 H20          4.7070    -0.0060    -5.2160 ha         1 SCJ       0.104500
     36 H21          7.1200    -0.0090    -4.7240 ha         1 SCJ       0.102000
     37 H22          7.9090    -0.0030    -2.3900 ha         1 SCJ       0.104500
     38 H23          6.2860     0.0020    -0.5360 ha         1 SCJ       0.117000
@<TRIPOS>BOND
     1     1     2 2   
     2     1     5 1   
     3     1    24 1   
     4     2     3 1   
     5     2     6 1   
     6     3     4 1   
     7     3     9 1   
     8     4     5 2   
     9     5    25 1   
    10     6     7 2   
    11     7     8 1   
    12     7    11 1   
    13     8     9 2   
    14     8    26 1   
    15     9    10 1   
    16    10    12 1   
    17    10    27 1   
    18    11    19 ar  
    19    11    23 ar  
    20    12    13 1   
    21    12    28 1   
    22    12    29 1   
    23    13    14 ar  
    24    13    18 ar  
    25    14    15 ar  
    26    14    30 1   
    27    15    16 ar  
    28    16    17 ar  
    29    16    31 1   
    30    17    18 ar  
    31    17    32 1   
    32    18    33 1   
    33    19    20 ar  
    34    19    34 1   
    35    20    21 ar  
    36    20    35 1   
    37    21    22 ar  
    38    21    36 1   
    39    22    23 ar  
    40    22    37 1   
    41    23    38 1   
@<TRIPOS>SUBSTRUCTURE
     1 SCJ         1 TEMP              0 ****  ****    0 ROOT
