@<TRIPOS>MOLECULE
molecule
   50    49     1     0     0
SMALL
bcc


@<TRIPOS>ATOM
      1 O13          0.0000     0.0000     0.0000 o          1 SCK      -0.516000
      2 C12          1.2080     0.0000     0.0000 c          1 SCK       0.636100
      3 O14          1.8800     0.0000     1.1620 os         1 SCK      -0.466900
      4 C15          1.1550     0.0010     2.4200 c3         1 SCK       0.127400
      5 C16          2.1500     0.0010     3.5820 c3         1 SCK       0.108800
      6 N17          2.8720     1.2810     3.6080 n4         1 SCK      -0.578800
      7 C20          1.9060     2.3860     3.6810 c3         1 SCK       0.094433
      8 C19          3.6780     1.4130     2.3880 c3         1 SCK       0.094433
      9 C18          3.7520     1.3220     4.7830 c3         1 SCK       0.094433
     10 C11          1.9610    -0.0010    -1.3060 c3         1 SCK      -0.113400
     11 C6           0.9660    -0.0010    -2.4680 c3         1 SCK      -0.113400
     12 C5           1.7190    -0.0020    -3.7740 c          1 SCK       0.636100
     13 O7           2.9270    -0.0030    -3.7740 o          1 SCK      -0.516000
     14 O4           1.0470    -0.0030    -4.9360 os         1 SCK      -0.466900
     15 C3           1.7720    -0.0030    -6.1940 c3         1 SCK       0.127400
     16 C2           0.7770    -0.0040    -7.3570 c3         1 SCK       0.108800
     17 N1           0.0580     1.2770    -7.3860 n4         1 SCK      -0.578800
     18 C8           1.0270     2.3820    -7.4240 c3         1 SCK       0.094433
     19 C9          -0.7940     1.3330    -8.5810 c3         1 SCK       0.094433
     20 C10         -0.7760     1.3990    -6.1830 c3         1 SCK       0.094433
     21 H151         0.5330     0.8860     2.4770 h1         1 SCK       0.089200
     22 H152         0.5310    -0.8830     2.4780 h1         1 SCK       0.089200
     23 H161         1.6150    -0.1310     4.5150 hx         1 SCK       0.118200
     24 H162         2.8560    -0.8100     3.4530 hx         1 SCK       0.118200
     25 H201         1.1090     2.1240     4.3660 hx         1 SCK       0.101033
     26 H202         2.4060     3.2800     4.0340 hx         1 SCK       0.101033
     27 H203         1.4920     2.5690     2.6970 hx         1 SCK       0.101033
     28 H191         3.0670     1.8250     1.5940 hx         1 SCK       0.101033
     29 H192         4.5150     2.0740     2.5780 hx         1 SCK       0.101033
     30 H193         4.0470     0.4390     2.0910 hx         1 SCK       0.101033
     31 H181         3.1540     1.2580     5.6840 hx         1 SCK       0.101033
     32 H182         4.4410     0.4870     4.7470 hx         1 SCK       0.101033
     33 H183         4.3100     2.2500     4.7850 hx         1 SCK       0.101033
     34 H111         2.5850     0.8830    -1.3650 hc         1 SCK       0.097700
     35 H112         2.5830    -0.8860    -1.3640 hc         1 SCK       0.097700
     36 H61          0.3440     0.8840    -2.4100 hc         1 SCK       0.097700
     37 H62          0.3430    -0.8850    -2.4100 hc         1 SCK       0.097700
     38 H31          2.3950    -0.8880    -6.2510 h1         1 SCK       0.089200
     39 H32          2.3950     0.8820    -6.2520 h1         1 SCK       0.089200
     40 H21          0.0690    -0.8130    -7.2250 hx         1 SCK       0.118200
     41 H22          1.3110    -0.1390    -8.2890 hx         1 SCK       0.118200
     42 H81          1.8460     2.1200    -8.0830 hx         1 SCK       0.101033
     43 H82          0.5400     3.2770    -7.7920 hx         1 SCK       0.101033
     44 H83          1.4080     2.5620    -6.4270 hx         1 SCK       0.101033
     45 H91         -1.3310     2.2740    -8.5990 hx         1 SCK       0.101033
     46 H92         -0.1780     1.2520    -9.4680 hx         1 SCK       0.101033
     47 H93         -1.5030     0.5140    -8.5570 hx         1 SCK       0.101033
     48 H101        -0.1860     1.8150    -5.3750 hx         1 SCK       0.101033
     49 H102        -1.6160     2.0510    -6.3900 hx         1 SCK       0.101033
     50 H103        -1.1410     0.4200    -5.8960 hx         1 SCK       0.101033
@<TRIPOS>BOND
     1     1     2 2
     2     2     3 1
     3     2    10 1
     4     3     4 1
     5     4     5 1
     6     4    21 1
     7     4    22 1
     8     5     6 1
     9     5    23 1
    10     5    24 1
    11     6     7 1
    12     6     8 1
    13     6     9 1
    14     7    25 1
    15     7    26 1
    16     7    27 1
    17     8    28 1
    18     8    29 1
    19     8    30 1
    20     9    31 1
    21     9    32 1
    22     9    33 1
    23    10    11 1
    24    10    34 1
    25    10    35 1
    26    11    12 1
    27    11    36 1
    28    11    37 1
    29    12    13 2
    30    12    14 1
    31    14    15 1
    32    15    16 1
    33    15    38 1
    34    15    39 1
    35    16    17 1
    36    16    40 1
    37    16    41 1
    38    17    18 1
    39    17    19 1
    40    17    20 1
    41    18    42 1
    42    18    43 1
    43    18    44 1
    44    19    45 1
    45    19    46 1
    46    19    47 1
    47    20    48 1
    48    20    49 1
    49    20    50 1
@<TRIPOS>SUBSTRUCTURE
     1 SCK         1 TEMP              0 ****  ****    0 ROOT
