@<TRIPOS>MOLECULE
SCL
   23    23     1     0     0
SMALL
bcc


@<TRIPOS>ATOM
      1 C1           0.0000     0.0000     0.0000 ca         1 SCL      -0.188600
      2 C2           1.4010     0.0000     0.0000 ca         1 SCL       0.209100
      3 C3           2.0890     0.0000     1.2040 ca         1 SCL      -0.193000
      4 C4           1.3950    -0.0140     2.3970 ca         1 SCL      -0.042000
      5 C5           0.0090    -0.0200     2.4020 ca         1 SCL      -0.139000
      6 C6          -0.6900    -0.0130     1.2150 ca         1 SCL      -0.057000
      7 C7          -0.7430     0.0070    -1.2740 c          1 SCL       0.583700
      8 C8          -4.0410     0.0020    -2.3160 c          1 SCL       0.668100
      9 C9          -4.8010     0.0090    -3.6170 c3         1 SCL      -0.022100
     10 N1          -2.0900     0.0010    -1.2690 ns         1 SCL      -0.027400
     11 O1           2.0810     0.0140    -1.1730 oh         1 SCL      -0.450100
     12 O2          -0.1390     0.0190    -2.3290 o          1 SCL      -0.609100
     13 O3          -2.7040     0.0080    -2.3200 os         1 SCL      -0.249200
     14 O4          -4.6440    -0.0100    -1.2640 o          1 SCL      -0.592000
     15 H3           3.1720     0.0020     1.2080 ha         1 SCL       0.116000
     16 H4           1.9370    -0.0170     3.3350 ha         1 SCL       0.102000
     17 H5          -0.5270    -0.0310     3.3430 ha         1 SCL       0.109000
     18 H6          -1.7730    -0.0150     1.2230 ha         1 SCL       0.106000
     19 H91         -4.8710     1.0240    -3.9890 hc         1 SCL       0.032700
     20 H92         -5.7970    -0.3860    -3.4570 hc         1 SCL       0.032700
     21 H93         -4.2810    -0.6060    -4.3420 hc         1 SCL       0.032700
     22 HN1         -2.5870    -0.0100    -0.4000 hn         1 SCL       0.178500
     23 HO1          2.7460    -0.6540    -1.1590 ho         1 SCL       0.400000
@<TRIPOS>BOND
     1     1     2 ar  
     2     1     6 ar  
     3     1     7 1   
     4     2     3 ar  
     5     2    11 1   
     6     3     4 ar  
     7     3    15 1   
     8     4     5 ar  
     9     4    16 1   
    10     5     6 ar  
    11     5    17 1   
    12     6    18 1   
    13     7    10 1   
    14     7    12 2   
    15     8     9 1   
    16     8    13 1   
    17     8    14 2   
    18     9    19 1   
    19     9    20 1   
    20     9    21 1   
    21    10    13 1   
    22    10    22 1   
    23    11    23 1   
@<TRIPOS>SUBSTRUCTURE
     1 SCL         1 TEMP              0 ****  ****    0 ROOT
