@<TRIPOS>MOLECULE
molecule
   47    49     1     0     0
SMALL
bcc


@<TRIPOS>ATOM
      1 O1           0.0000     0.0000     0.0000 os         1 SCM      -0.406600
      2 C2           1.4260     0.0000     0.0000 c3         1 SCM       0.142100
      3 C2M          1.9360    -1.2480    -0.7220 c3         1 SCM      -0.086100
      4 C3           1.9450     0.0000     1.4430 c3         1 SCM      -0.206400
      5 C4           1.3310     1.2020     2.1840 c          1 SCM       0.557100
      6 O4           1.9990     1.9240     2.8840 o          1 SCM      -0.493100
      7 C5          -0.1580     1.4110     1.9580 c3         1 SCM       0.195600
      8 O5          -0.5520     2.7050     2.4220 oh         1 SCM      -0.592800
      9 C6          -0.4380     1.2760     0.4580 c3         1 SCM       0.304900
     10 O1B         -0.8660     0.3940     2.6670 os         1 SCM      -0.355600
     11 O2B         -1.8280     1.4390     0.2030 os         1 SCM      -0.356600
     12 C7          -2.2570     0.5720     2.3960 c3         1 SCM       0.123100
     13 C8          -3.0500    -0.4860     3.1690 c3         1 SCM       0.154500
     14 N8          -2.8120    -0.3170     4.6090 n7         1 SCM      -0.775200
     15 C8M         -3.0470    -1.6260     5.2320 c3         1 SCM       0.131100
     16 C9          -4.5440    -0.3260     2.8790 c3         1 SCM       0.070100
     17 O9          -4.9720     0.9780     3.2770 oh         1 SCM      -0.596800
     18 C10         -4.7890    -0.5090     1.3790 c3         1 SCM       0.139500
     19 N10         -6.2240    -0.3670     1.0960 n7         1 SCM      -0.780200
     20 C1M         -6.8400    -1.6700     1.3760 c3         1 SCM       0.133100
     21 C11         -4.0080     0.5560     0.6070 c3         1 SCM       0.172100
     22 O11         -4.2350     0.4170    -0.7970 oh         1 SCM      -0.582800
     23 C12         -2.5160     0.4130     0.8970 c3         1 SCM       0.085100
     24 H2           1.7840     0.8870    -0.5090 h1         1 SCM       0.040700
     25 H2M1         3.0140    -1.1930    -0.8210 hc         1 SCM       0.050700
     26 H2M2         1.6710    -2.1290    -0.1510 hc         1 SCM       0.050700
     27 H2M3         1.4860    -1.3050    -1.7060 hc         1 SCM       0.050700
     28 H31          1.6510    -0.9190     1.9350 hc         1 SCM       0.086700
     29 H32          3.0250     0.0880     1.4410 hc         1 SCM       0.086700
     30 HO5          0.2150     3.2380     2.5540 ho         1 SCM       0.428000
     31 H6           0.1090     2.0460    -0.0730 h2         1 SCM       0.074700
     32 H7          -2.5660     1.5600     2.7140 h1         1 SCM       0.093700
     33 H8          -2.7290    -1.4730     2.8590 h1         1 SCM       0.077700
     34 HN8         -3.4600     0.3490     4.9790 hn         1 SCM       0.359800
     35 H8M1        -2.6620    -2.4070     4.5880 h1         1 SCM       0.031367
     36 H8M2        -2.5420    -1.6670     6.1900 h1         1 SCM       0.031367
     37 H8M3        -4.1110    -1.7710     5.3780 h1         1 SCM       0.031367
     38 H9          -5.0990    -1.0780     3.4290 h1         1 SCM       0.042700
     39 HO9         -5.6410     0.9010     3.9370 ho         1 SCM       0.403000
     40 H10         -4.4510    -1.4930     1.0760 h1         1 SCM       0.081700
     41 HN1         -6.6170     0.3250     1.7030 hn         1 SCM       0.356800
     42 H1M1        -6.1450    -2.4610     1.1170 h1         1 SCM       0.032367
     43 H1M2        -7.0850    -1.7360     2.4290 h1         1 SCM       0.032367
     44 H1M3        -7.7430    -1.7770     0.7880 h1         1 SCM       0.032367
     45 H11         -4.3370     1.5360     0.9290 h1         1 SCM       0.061700
     46 HO1         -4.5510     1.2340    -1.1460 ho         1 SCM       0.411000
     47 H12         -2.1660    -0.5560     0.5630 h1         1 SCM       0.078700
@<TRIPOS>BOND
     1     1     2 1
     2     1     9 1
     3     2     3 1
     4     2     4 1
     5     2    24 1
     6     3    25 1
     7     3    26 1
     8     3    27 1
     9     4     5 1
    10     4    28 1
    11     4    29 1
    12     5     6 2
    13     5     7 1
    14     7     8 1
    15     7     9 1
    16     7    10 1
    17     8    30 1
    18     9    11 1
    19     9    31 1
    20    10    12 1
    21    11    23 1
    22    12    13 1
    23    12    23 1
    24    12    32 1
    25    13    14 1
    26    13    16 1
    27    13    33 1
    28    14    15 1
    29    14    34 1
    30    15    35 1
    31    15    36 1
    32    15    37 1
    33    16    17 1
    34    16    18 1
    35    16    38 1
    36    17    39 1
    37    18    19 1
    38    18    21 1
    39    18    40 1
    40    19    20 1
    41    19    41 1
    42    20    42 1
    43    20    43 1
    44    20    44 1
    45    21    22 1
    46    21    23 1
    47    21    45 1
    48    22    46 1
    49    23    47 1
@<TRIPOS>SUBSTRUCTURE
     1 SCM         1 TEMP              0 ****  ****    0 ROOT
