@<TRIPOS>MOLECULE
SCQ
   38    41     1     0     0
SMALL
bcc


@<TRIPOS>ATOM
      1 C01          0.0000     0.0000     0.0000 cc         1 SCQ      -0.285900
      2 C02          1.3920     0.0000     0.0000 cd         1 SCQ      -0.130300
      3 N03          1.7940     0.0000     1.3130 na         1 SCQ       0.665000
      4 N04          0.6380     0.0000     2.1050 nd         1 SCQ      -0.772100
      5 C05         -0.4170     0.0050     1.3220 cc         1 SCQ       0.520500
      6 C06          2.3460    -0.0010    -1.0310 cd         1 SCQ      -0.131000
      7 C07          3.6910    -0.0010    -0.7050 cc         1 SCQ       0.039000
      8 C08          4.0720    -0.0010     0.6550 cc         1 SCQ      -0.252000
      9 C09          3.1260     0.0000     1.6290 cd         1 SCQ      -0.027700
     10 N10          3.5140     0.0000     2.9590 nu         1 SCQ      -0.406600
     11 C11          4.7210    -0.0010    -1.7710 ca         1 SCQ      -0.045000
     12 C12          4.9370     0.0010     3.3080 c3         1 SCQ       0.244100
     13 C13          5.0870     0.0010     4.8070 ca         1 SCQ      -0.374900
     14 C14          5.1520     1.1910     5.5140 ca         1 SCQ       0.463700
     15 N15          5.2780     1.1520     6.8310 nb         1 SCQ      -0.626000
     16 C16          5.3430     0.0010     7.4690 ca         1 SCQ       0.641900
     17 N17          5.2840    -1.1500     6.8300 nb         1 SCQ      -0.626000
     18 C18          5.1580    -1.1890     5.5130 ca         1 SCQ       0.463700
     19 C19          4.8410     1.0910    -2.6290 ca         1 SCQ      -0.086500
     20 C20          5.8020     1.0840    -3.6190 ca         1 SCQ      -0.100500
     21 C21          6.6440    -0.0030    -3.7620 ca         1 SCQ      -0.097000
     22 C22          6.5300    -1.0890    -2.9140 ca         1 SCQ      -0.100500
     23 C23          5.5780    -1.0920    -1.9160 ca         1 SCQ      -0.086500
     24 Br24        -1.1170     0.0000    -1.5250 br         1 SCQ      -0.063700
     25 H05         -1.4480     0.0130     1.6560 h4         1 SCQ       0.016800
     26 H06          2.0330    -0.0010    -2.0680 ha         1 SCQ       0.135000
     27 H08          5.1220    -0.0000     0.9210 ha         1 SCQ       0.139000
     28 HN10         2.8220    -0.0000     3.6820 hn         1 SCQ       0.318800
     29 H121         5.4090     0.8850     2.8970 h1         1 SCQ       0.023200
     30 H122         5.4100    -0.8840     2.8980 h1         1 SCQ       0.023200
     31 H14          5.0990     2.1410     4.9950 h4         1 SCQ      -0.009900
     32 H16          5.4460     0.0010     8.5470 h5         1 SCQ       0.003100
     33 H18          5.1100    -2.1390     4.9940 h4         1 SCQ      -0.009900
     34 H19          4.1810     1.9440    -2.5180 ha         1 SCQ       0.109000
     35 H20          5.8960     1.9330    -4.2860 ha         1 SCQ       0.104500
     36 H21          7.3960    -0.0040    -4.5430 ha         1 SCQ       0.103000
     37 H22          7.1950    -1.9370    -3.0300 ha         1 SCQ       0.104500
     38 H23          5.4890    -1.9440    -1.2520 ha         1 SCQ       0.109000
@<TRIPOS>BOND
     1     1     2 2   
     2     1     5 1   
     3     1    24 1   
     4     2     3 1   
     5     2     6 1   
     6     3     4 1   
     7     3     9 1   
     8     4     5 2   
     9     5    25 1   
    10     6     7 2   
    11     6    26 1   
    12     7     8 1   
    13     7    11 1   
    14     8     9 2   
    15     8    27 1   
    16     9    10 1   
    17    10    12 1   
    18    10    28 1   
    19    11    19 ar  
    20    11    23 ar  
    21    12    13 1   
    22    12    29 1   
    23    12    30 1   
    24    13    14 ar  
    25    13    18 ar  
    26    14    15 ar  
    27    14    31 1   
    28    15    16 ar  
    29    16    17 ar  
    30    16    32 1   
    31    17    18 ar  
    32    18    33 1   
    33    19    20 ar  
    34    19    34 1   
    35    20    21 ar  
    36    20    35 1   
    37    21    22 ar  
    38    21    36 1   
    39    22    23 ar  
    40    22    37 1   
    41    23    38 1   
@<TRIPOS>SUBSTRUCTURE
     1 SCQ         1 TEMP              0 ****  ****    0 ROOT
