@<TRIPOS>MOLECULE
molecule
   38    41     1     0     0
SMALL
bcc


@<TRIPOS>ATOM
      1 C01          0.0000     0.0000     0.0000 cc         1 SCQ      -0.314900
      2 C02          1.3920     0.0000     0.0000 cd         1 SCQ       0.050700
      3 N03          1.7940     0.0000     1.3130 na         1 SCQ       0.161000
      4 N04          0.6380     0.0000     2.1050 nc         1 SCQ      -0.592100
      5 C05         -0.4170     0.0050     1.3220 cd         1 SCQ       0.452500
      6 C06          2.3460    -0.0010    -1.0310 cd         1 SCQ      -0.181000
      7 C07          3.6910    -0.0010    -0.7050 cc         1 SCQ       0.047000
      8 C08          4.0720    -0.0010     0.6550 cd         1 SCQ      -0.284000
      9 C09          3.1260     0.0000     1.6290 cc         1 SCQ       0.303300
     10 N10          3.5140     0.0000     2.9590 nu         1 SCQ      -0.814600
     11 C11          4.7210    -0.0010    -1.7710 ca         1 SCQ      -0.050000
     12 C12          4.9370     0.0010     3.3080 c3         1 SCQ       0.299100
     13 C13          5.0870     0.0010     4.8070 ca         1 SCQ      -0.377900
     14 C14          5.1520     1.1910     5.5140 ca         1 SCQ       0.478200
     15 N15          5.2780     1.1520     6.8310 nb         1 SCQ      -0.734500
     16 C16          5.3430     0.0010     7.4690 ca         1 SCQ       0.691900
     17 N17          5.2840    -1.1500     6.8300 nb         1 SCQ      -0.734500
     18 C18          5.1580    -1.1890     5.5130 ca         1 SCQ       0.478200
     19 C19          4.8410     1.0910    -2.6290 ca         1 SCQ      -0.110000
     20 C20          5.8020     1.0840    -3.6190 ca         1 SCQ      -0.129500
     21 C21          6.6440    -0.0030    -3.7620 ca         1 SCQ      -0.122000
     22 C22          6.5300    -1.0890    -2.9140 ca         1 SCQ      -0.129500
     23 C23          5.5780    -1.0920    -1.9160 ca         1 SCQ      -0.110000
     24 Br24        -1.1170     0.0000    -1.5250 br         1 SCQ      -0.053700
     25 H05         -1.4480     0.0130     1.6560 h4         1 SCQ       0.068800
     26 H06          2.0330    -0.0010    -2.0680 ha         1 SCQ       0.165000
     27 H08          5.1220    -0.0000     0.9210 ha         1 SCQ       0.157000
     28 HN10         2.8220    -0.0000     3.6820 hn         1 SCQ       0.465800
     29 H121         5.4090     0.8850     2.8970 h1         1 SCQ       0.053700
     30 H122         5.4100    -0.8840     2.8980 h1         1 SCQ       0.053700
     31 H14          5.0990     2.1410     4.9950 h4         1 SCQ       0.036600
     32 H16          5.4460     0.0010     8.5470 h5         1 SCQ       0.066100
     33 H18          5.1100    -2.1390     4.9940 h4         1 SCQ       0.036600
     34 H19          4.1810     1.9440    -2.5180 ha         1 SCQ       0.137000
     35 H20          5.8960     1.9330    -4.2860 ha         1 SCQ       0.132500
     36 H21          7.3960    -0.0040    -4.5430 ha         1 SCQ       0.131000
     37 H22          7.1950    -1.9370    -3.0300 ha         1 SCQ       0.132500
     38 H23          5.4890    -1.9440    -1.2520 ha         1 SCQ       0.137000
@<TRIPOS>BOND
     1    15    16 ar
     2    15    14 ar
     3    16    17 ar
     4    14    13 ar
     5    17    18 ar
     6    13    18 ar
     7    13    12 1
     8     4     5 2
     9     4     3 1
    10    10    12 1
    11    10     9 1
    12     5     1 1
    13     3     9 1
    14     3     2 1
    15     9     8 2
    16     1     2 2
    17     1    24 1
    18     2     6 1
    19     8     7 1
    20     6     7 2
    21     7    11 1
    22    23    11 ar
    23    23    22 ar
    24    11    19 ar
    25    22    21 ar
    26    19    20 ar
    27    21    20 ar
    28     5    25 1
    29     6    26 1
    30     8    27 1
    31    10    28 1
    32    12    29 1
    33    12    30 1
    34    14    31 1
    35    16    32 1
    36    18    33 1
    37    19    34 1
    38    20    35 1
    39    21    36 1
    40    22    37 1
    41    23    38 1
@<TRIPOS>SUBSTRUCTURE
     1 SCQ         1 TEMP              0 ****  ****    0 ROOT
