@<TRIPOS>MOLECULE
SCT
   34    36     1     0     0
SMALL
bcc


@<TRIPOS>ATOM
      1 O16          0.0000     0.0000     0.0000 oh         1 SCT      -0.591800
      2 O18          1.2370     1.0370     3.5490 oh         1 SCT      -0.580800
      3 O9           6.1170     2.5670     3.1420 o          1 SCT      -0.657500
      4 O7           8.0230     3.6690    -0.8990 o          1 SCT      -0.638500
      5 N8           4.9920     1.9550     1.1940 n          1 SCT       0.064000
      6 N5           7.0610     3.1090     1.1190 ns         1 SCT      -0.197500
      7 C1           1.9000     0.0000     1.4480 c3         1 SCT      -0.036700
      8 C10          1.4880     1.3030     2.1720 c3         1 SCT       0.193100
      9 C14          2.6970     2.2460     2.0620 c3         1 SCT      -0.023400
     10 C17          3.8900     1.3500     1.8760 cx         1 SCT      -0.117600
     11 C13          3.4120    -0.0110     1.5000 cx         1 SCT      -0.118700
     12 C12          1.4150     0.0000     0.0000 c3         1 SCT       0.234400
     13 C11          6.0570     2.5400     1.9110 c          1 SCT       0.624500
     14 C15          4.1730     0.1850     2.7860 cx         1 SCT       0.018600
     15 C6           7.1070     3.1500    -0.2660 c          1 SCT       0.647700
     16 C4           5.9490     2.5140    -0.9490 cc         1 SCT      -0.271400
     17 C2           4.9870     1.9690    -0.1940 cd         1 SCT      -0.109400
     18 C3           5.9240     2.5210    -2.4440 c3         1 SCT       0.095100
     19 H16         -0.3140    -0.2460    -0.8540 ho         1 SCT       0.394000
     20 H18          0.4110     1.4180     3.7980 ho         1 SCT       0.393000
     21 H1           1.5050    -0.8580     1.9780 hc         1 SCT       0.060700
     22 H10          0.6190     1.7430     1.6970 h1         1 SCT       0.023700
     23 H141         2.5850     2.9000     1.2060 hc         1 SCT       0.037200
     24 H142         2.8030     2.8240     2.9720 hc         1 SCT       0.037200
     25 H13          3.9570    -0.4160     0.6560 hc         1 SCT       0.060700
     26 H121         1.7800    -0.8860    -0.5060 h1         1 SCT      -0.013300
     27 H122         1.7800     0.8860    -0.5060 h1         1 SCT      -0.013300
     28 H151         5.1950    -0.1730     2.7840 hc         1 SCT       0.064700
     29 H152         3.5800     0.1430     3.6920 hc         1 SCT       0.064700
     30 H2           4.1470     1.5080    -0.7010 h4         1 SCT       0.129000
     31 H3C1         5.2640     1.7380    -2.7970 hc         1 SCT       0.011367
     32 H3C2         6.9240     2.3480    -2.8220 hc         1 SCT       0.011367
     33 H3C3         5.5660     3.4810    -2.7940 hc         1 SCT       0.011367
     34 HN1          7.8270     3.5310     1.6050 hn         1 SCT       0.193500
@<TRIPOS>BOND
     1     1    12 1   
     2     1    19 1   
     3     2     8 1   
     4     2    20 1   
     5     3    13 2   
     6     4    15 2   
     7     5    10 1   
     8     5    13 1   
     9     5    17 1   
    10     6    13 1   
    11     6    15 1   
    12     6    34 1   
    13     7     8 1   
    14     7    11 1   
    15     7    12 1   
    16     7    21 1   
    17     8     9 1   
    18     8    22 1   
    19     9    10 1   
    20     9    23 1   
    21     9    24 1   
    22    10    11 1   
    23    10    14 1   
    24    11    14 1   
    25    11    25 1   
    26    12    26 1   
    27    12    27 1   
    28    14    28 1   
    29    14    29 1   
    30    15    16 1   
    31    16    17 2   
    32    16    18 1   
    33    17    30 1   
    34    18    31 1   
    35    18    32 1   
    36    18    33 1   
@<TRIPOS>SUBSTRUCTURE
     1 SCT         1 TEMP              0 ****  ****    0 ROOT
