@<TRIPOS>MOLECULE
SCU
   31    30     1     0     0
SMALL
bcc


@<TRIPOS>ATOM
      1 O13          0.0000     0.0000     0.0000 o          1 SCU      -0.536000
      2 C12          1.2090     0.0000     0.0000 c          1 SCU       0.690100
      3 C11          1.9620     0.0000     1.3050 c3         1 SCU      -0.044400
      4 C6           0.9680    -0.0020     2.4680 c3         1 SCU      -0.151400
      5 C5           1.7220    -0.0030     3.7740 c          1 SCU       0.640900
      6 O4           1.5030     0.8530     4.5970 o          1 SCU      -0.516100
      7 O14          1.8800     0.0020    -1.1620 os         1 SCU      -0.461900
      8 C15          1.1540     0.0030    -2.4200 c3         1 SCU       0.209400
      9 C16          2.1480     0.0040    -3.5820 c3         1 SCU      -0.014200
     10 N17          2.8660    -1.2760    -3.6150 n4         1 SCU       0.050200
     11 C20          1.8970    -2.3790    -3.6780 c3         1 SCU       0.012433
     12 C19          3.6840    -1.4100    -2.4020 c3         1 SCU       0.012433
     13 C18          3.7350    -1.3210    -4.7980 c3         1 SCU       0.012433
     14 H111         2.5860    -0.8840     1.3620 hc         1 SCU       0.039200
     15 H112         2.5830     0.8850     1.3640 hc         1 SCU       0.039200
     16 H61          0.3440     0.8810     2.4120 hc         1 SCU       0.055700
     17 H62          0.3460    -0.8880     2.4100 hc         1 SCU       0.055700
     18 H5           2.4270    -0.7960     3.9910 h4         1 SCU      -0.036800
     19 H151         0.5310     0.8870    -2.4770 h1         1 SCU       0.046700
     20 H152         0.5320    -0.8820    -2.4780 h1         1 SCU       0.046700
     21 H161         1.6130     0.1420    -4.5140 hx         1 SCU       0.086700
     22 H162         2.8570     0.8120    -3.4500 hx         1 SCU       0.086700
     23 H201         2.3940    -3.2770    -4.0240 hx         1 SCU       0.075033
     24 H202         1.4840    -2.5530    -2.6910 hx         1 SCU       0.075033
     25 H203         1.0990    -2.1210    -4.3630 hx         1 SCU       0.075033
     26 H191         4.5090    -2.0840    -2.5950 hx         1 SCU       0.075033
     27 H192         4.0700    -0.4390    -2.1180 hx         1 SCU       0.075033
     28 H193         3.0750    -1.8060    -1.5980 hx         1 SCU       0.075033
     29 H181         4.2720    -2.2620    -4.8180 hx         1 SCU       0.075033
     30 H182         3.1320    -1.2310    -5.6940 hx         1 SCU       0.075033
     31 H183         4.4440    -0.5020    -4.7570 hx         1 SCU       0.075033
@<TRIPOS>BOND
     1     1     2 2   
     2     2     3 1   
     3     2     7 1   
     4     3     4 1   
     5     3    14 1   
     6     3    15 1   
     7     4     5 1   
     8     4    16 1   
     9     4    17 1   
    10     5     6 2   
    11     5    18 1   
    12     7     8 1   
    13     8     9 1   
    14     8    19 1   
    15     8    20 1   
    16     9    10 1   
    17     9    21 1   
    18     9    22 1   
    19    10    11 1   
    20    10    12 1   
    21    10    13 1   
    22    11    23 1   
    23    11    24 1   
    24    11    25 1   
    25    12    26 1   
    26    12    27 1   
    27    12    28 1   
    28    13    29 1   
    29    13    30 1   
    30    13    31 1   
@<TRIPOS>SUBSTRUCTURE
     1 SCU         1 TEMP              0 ****  ****    0 ROOT
