@<TRIPOS>MOLECULE
molecule
   46    45     1     0     0
SMALL
bcc


@<TRIPOS>ATOM
      1 C1           0.0000     0.0000     0.0000 c          1 SCV       0.869600
      2 C2           1.5160     0.0000     0.0000 c3         1 SCV      -0.032500
      3 C3           2.0950     0.0000     1.4230 c3         1 SCV      -0.043400
      4 C4           1.6460     1.1810     2.2930 c3         1 SCV      -0.047400
      5 C7           2.0030     3.0550     6.9200 c3         1 SCV      -0.005300
      6 C10          4.8030     5.2170     5.7890 c3         1 SCV       0.031100
      7 C12          5.8270     4.9240     4.6760 c3         1 SCV      -0.043700
      8 C13          5.1400     4.8360     3.3080 c3         1 SCV      -0.148100
      9 C5           2.2230     1.0760     3.7040 c3         1 SCV      -0.159400
     10 N1           1.9730     1.1580    -0.7660 nz         1 SCV      -0.799600
     11 O1          -0.4750    -1.1140     0.6160 o          1 SCV      -0.778300
     12 O2          -0.7240     0.8560    -0.4880 o          1 SCV      -0.778300
     13 O5           3.8970     4.1170     5.9180 os         1 SCV      -0.420900
     14 C11          5.4430     5.3700     7.1550 c          1 SCV       0.877600
     15 O6           5.6900     6.6680     7.4700 o          1 SCV      -0.825300
     16 O7           5.7200     4.4410     7.9020 o          1 SCV      -0.825300
     17 C6           1.7620     2.2080     4.6040 c          1 SCV       0.682100
     18 O3           1.0080     3.1040     4.2320 o          1 SCV      -0.591100
     19 N2           2.2950     2.0960     5.8800 ns         1 SCV      -0.575900
     20 C8           2.9560     4.2360     6.8970 c          1 SCV       0.640100
     21 C9           2.0480     2.2940     8.2270 c          1 SCV       0.627700
     22 O8           2.8200     1.3710     8.4590 o          1 SCV      -0.515100
     23 S            0.9180     2.8630     9.4520 sh         1 SCV      -0.343400
     24 HC2          1.8550    -0.8970    -0.5040 hx         1 SCV       0.091700
     25 HC31         3.1220     0.3090     1.2720 hc         1 SCV       0.043200
     26 HC32         2.2360    -1.0740     1.4200 hc         1 SCV       0.043200
     27 HC41         0.5650     1.1890     2.3510 hc         1 SCV       0.065200
     28 HC42         1.9840     2.1050     1.8390 hc         1 SCV       0.065200
     29 HC7          0.9950     3.4250     6.7730 h1         1 SCV       0.113700
     30 HC01         4.2490     6.1150     5.5450 h1         1 SCV       0.063700
     31 H131         4.3910     4.5110     4.0200 hc         1 SCV       0.047033
     32 H132         4.7220     5.8330     3.2320 hc         1 SCV       0.047033
     33 H133         5.4380     4.1760     2.5020 hc         1 SCV       0.047033
     34 HC51         3.3040     1.0960     3.6430 hc         1 SCV       0.067200
     35 HC52         1.9140     0.1340     4.1390 hc         1 SCV       0.067200
     36 HN11         1.6840     1.9980    -0.3050 hn         1 SCV       0.436133
     37 HN12         1.5770     1.1280    -1.6840 hn         1 SCV       0.436133
     38 H141         5.9800     2.7810     4.7390 hc         1 SCV       0.047033
     39 H142         6.9500     3.6160     5.9600 hc         1 SCV       0.047033
     40 H143         7.4740     3.6040     4.2700 hc         1 SCV       0.047033
     41 HN2          2.9010     1.3270     6.0870 hn         1 SCV       0.338500
     42 HS1          0.8590     1.9830    10.4440 hs         1 SCV       0.221800
     43 O4           2.8380     5.1970     7.6500 o          1 SCV      -0.475000
     44 HC21         6.5310     5.7470     4.6450 hc         1 SCV       0.057700
     45 H13          2.9710     1.1400    -0.8340 hn         1 SCV       0.436133
     46 C14          6.6150     3.6380     4.9300 c3         1 SCV      -0.148100
@<TRIPOS>BOND
     1     1     2 1
     2     1    11 1
     3     1    12 1
     4     2     3 1
     5     2    10 1
     6     2    24 1
     7     3     4 1
     8     3    25 1
     9     3    26 1
    10     4     9 1
    11     4    27 1
    12     4    28 1
    13     5    19 1
    14     5    20 1
    15     5    21 1
    16     5    29 1
    17     6     7 1
    18     6    13 1
    19     6    14 1
    20     6    30 1
    21     7     8 1
    22     7    46 1
    23     7    44 1
    24     8    31 1
    25     8    32 1
    26     8    33 1
    27     9    17 1
    28     9    34 1
    29     9    35 1
    30    10    36 1
    31    10    37 1
    32    13    20 1
    33    14    15 1
    34    14    16 1
    35    46    38 1
    36    46    39 1
    37    46    40 1
    38    17    18 2
    39    17    19 1
    40    19    41 1
    41    43    20 2
    42    21    22 2
    43    21    23 1
    44    42    23 1
    45    45    10 1
@<TRIPOS>SUBSTRUCTURE
     1 SCV         1 TEMP              0 ****  ****    0 ROOT
