@<TRIPOS>MOLECULE
SCW
   38    41     1     0     0
SMALL
bcc


@<TRIPOS>ATOM
      1 C01          0.0000     0.0000     0.0000 cc         1 SCW      -0.358400
      2 N02          1.3680     0.0000     0.0000 na         1 SCW       0.696700
      3 C03          1.7680     0.0000     1.3100 cc         1 SCW      -0.287300
      4 N04          0.6840     0.0010     2.0710 nd         1 SCW      -0.254600
      5 C05         -0.3990     0.0060     1.2920 cd         1 SCW       0.076600
      6 C06          2.2900    -0.0010    -1.0090 cc         1 SCW      -0.361300
      7 C07          3.6210    -0.0010    -0.7300 cd         1 SCW       0.060000
      8 C08          4.0650    -0.0000     0.6120 cd         1 SCW      -0.266000
      9 C09          3.1500     0.0010     1.6230 cc         1 SCW       0.132600
     10 N10          3.5710     0.0020     2.9550 nu         1 SCW      -0.389600
     11 C11          4.6090    -0.0020    -1.8370 ca         1 SCW      -0.045000
     12 C12          5.0020     0.0010     3.2710 c3         1 SCW       0.235100
     13 C13          5.1850     0.0030     4.7670 ca         1 SCW      -0.370900
     14 C14          5.2720    -1.1870     5.4720 ca         1 SCW       0.462200
     15 N15          5.4330    -1.1470     6.7850 nb         1 SCW      -0.627000
     16 C16          5.5110     0.0040     7.4210 ca         1 SCW       0.639900
     17 N17          5.4330     1.1550     6.7830 nb         1 SCW      -0.627000
     18 C18          5.2780     1.1940     5.4700 ca         1 SCW       0.462200
     19 C19          4.6950     1.0910    -2.6990 ca         1 SCW      -0.086000
     20 C20          5.6160     1.0850    -3.7270 ca         1 SCW      -0.101000
     21 C21          6.4530    -0.0030    -3.9040 ca         1 SCW      -0.096000
     22 C22          6.3710    -1.0890    -3.0510 ca         1 SCW      -0.101000
     23 C23          5.4590    -1.0910    -2.0160 ca         1 SCW      -0.086000
     24 Br24        -1.1220    -0.0010    -1.5220 br         1 SCW      -0.018700
     25 H05         -1.4260     0.0150     1.6360 h4         1 SCW       0.147000
     26 H06          1.9570    -0.0010    -2.0400 h4         1 SCW       0.154000
     27 H08          5.1250    -0.0010     0.8360 ha         1 SCW       0.135000
     28 HN10         2.8950     0.0030     3.6930 hn         1 SCW       0.316800
     29 H121         5.4650     0.8850     2.8500 h1         1 SCW       0.022200
     30 H122         5.4640    -0.8840     2.8510 h1         1 SCW       0.022200
     31 H14          5.2080    -2.1370     4.9560 h4         1 SCW      -0.009900
     32 H16          5.6410     0.0050     8.4960 h5         1 SCW       0.003100
     33 H18          5.2140     2.1430     4.9520 h4         1 SCW      -0.009900
     34 H19          4.0410     1.9430    -2.5610 ha         1 SCW       0.109000
     35 H20          5.6830     1.9330    -4.3970 ha         1 SCW       0.104500
     36 H21          7.1720    -0.0050    -4.7140 ha         1 SCW       0.103000
     37 H22          7.0300    -1.9380    -3.1920 ha         1 SCW       0.104500
     38 H23          5.3960    -1.9430    -1.3500 ha         1 SCW       0.109000
@<TRIPOS>BOND
     1     1     2 1   
     2     1     5 2   
     3     1    24 1   
     4     2     3 1   
     5     2     6 1   
     6     3     4 2   
     7     3     9 1   
     8     4     5 1   
     9     5    25 1   
    10     6     7 2   
    11     6    26 1   
    12     7     8 1   
    13     7    11 1   
    14     8     9 2   
    15     8    27 1   
    16     9    10 1   
    17    10    12 1   
    18    10    28 1   
    19    11    19 ar  
    20    11    23 ar  
    21    12    13 1   
    22    12    29 1   
    23    12    30 1   
    24    13    14 ar  
    25    13    18 ar  
    26    14    15 ar  
    27    14    31 1   
    28    15    16 ar  
    29    16    17 ar  
    30    16    32 1   
    31    17    18 ar  
    32    18    33 1   
    33    19    20 ar  
    34    19    34 1   
    35    20    21 ar  
    36    20    35 1   
    37    21    22 ar  
    38    21    36 1   
    39    22    23 ar  
    40    22    37 1   
    41    23    38 1   
@<TRIPOS>SUBSTRUCTURE
     1 SCW         1 TEMP              0 ****  ****    0 ROOT
