@<TRIPOS>MOLECULE
SCX
   45    48     1     0     0
SMALL
bcc


@<TRIPOS>ATOM
      1 C01          0.0000     0.0000     0.0000 cc         1 SCX      -0.352800
      2 C02          1.3900     0.0000     0.0000 cd         1 SCX       0.236500
      3 N03          1.7870     0.0000     1.3120 na         1 SCX       0.489200
      4 N04          0.6350    -0.0010     2.1060 nd         1 SCX      -0.760100
      5 C05         -0.4200     0.0050     1.3230 cc         1 SCX       0.498500
      6 N06          2.2920     0.0020    -0.9890 nd         1 SCX      -0.572000
      7 C07          3.5900     0.0020    -0.7250 cc         1 SCX       0.503800
      8 C08          4.0390     0.0020     0.6080 cc         1 SCX      -0.380300
      9 C09          3.1240    -0.0000     1.6210 cd         1 SCX       0.007300
     10 N10          3.5360    -0.0000     2.9370 nu         1 SCX      -0.383600
     11 C11          4.5700     0.0040    -1.8350 ca         1 SCX      -0.202500
     12 C12          4.9670    -0.0000     3.2560 c3         1 SCX       0.253100
     13 C13          5.1480    -0.0010     4.7520 ca         1 SCX      -0.462900
     14 C14          5.2340    -1.1930     5.4540 ca         1 SCX       0.518700
     15 N15          5.3920    -1.1580     6.7670 nb         1 SCX      -0.698500
     16 C16          5.4690    -0.0020     7.4090 ca         1 SCX       0.716900
     17 N17          5.3910     1.1550     6.7680 nb         1 SCX      -0.698500
     18 C18          5.2380     1.1900     5.4550 ca         1 SCX       0.518700
     19 C19          5.0340     1.2120    -2.3600 ca         1 SCX       0.154900
     20 C20          5.9490     1.2050    -3.3960 ca         1 SCX      -0.149000
     21 C21          6.4060     0.0070    -3.9120 ca         1 SCX      -0.044000
     22 C22          5.9510    -1.1940    -3.3970 ca         1 SCX      -0.149000
     23 C23          5.0400    -1.2040    -2.3580 ca         1 SCX       0.154900
     24 C24         -0.8900     0.0000    -1.2160 c3         1 SCX       0.084800
     25 N25          5.6350    -0.0030     8.7840 nv         1 SCX      -0.483500
     26 C26         -1.0880    -1.4370    -1.7030 c3         1 SCX       0.001900
     27 F27          4.5890     2.3850    -1.8580 f          1 SCX      -0.120900
     28 F28          4.6000    -2.3770    -1.8520 f          1 SCX      -0.120900
     29 H05         -1.4510     0.0130     1.6560 h4         1 SCX       0.012800
     30 H08          5.1000     0.0020     0.8280 ha         1 SCX       0.145000
     31 HN10         2.8590     0.0180     3.6740 hn         1 SCX       0.318800
     32 H121         5.4310     0.8840     2.8360 h1         1 SCX       0.022200
     33 H122         5.4310    -0.8850     2.8360 h1         1 SCX       0.022200
     34 H14          5.1710    -2.1420     4.9350 h4         1 SCX      -0.014900
     35 H18          5.1750     2.1390     4.9350 h4         1 SCX      -0.014900
     36 H20          6.3100     2.1420    -3.8040 ha         1 SCX       0.124000
     37 H21          7.1220     0.0080    -4.7250 ha         1 SCX       0.110000
     38 H22          6.3150    -2.1290    -3.8050 ha         1 SCX       0.124000
     39 H241        -0.4290     0.5870    -2.0010 hc         1 SCX       0.013700
     40 H242        -1.8510     0.4310    -0.9610 hc         1 SCX       0.013700
     41 H251         5.6940     0.8640     9.2820 hn         1 SCX       0.277800
     42 H252         5.6950    -0.8700     9.2800 hn         1 SCX       0.277800
     43 H261        -1.1450    -2.1020    -0.8500 hc         1 SCX       0.001700
     44 H262        -2.0070    -1.5010    -2.2730 hc         1 SCX       0.001700
     45 H263        -0.2530    -1.7240    -2.3300 hc         1 SCX       0.001700
@<TRIPOS>BOND
     1     1     2 2   
     2     1     5 1   
     3     1    24 1   
     4     2     3 1   
     5     2     6 1   
     6     3     4 1   
     7     3     9 1   
     8     4     5 2   
     9     5    29 1   
    10     6     7 2   
    11     7     8 1   
    12     7    11 1   
    13     8     9 2   
    14     8    30 1   
    15     9    10 1   
    16    10    12 1   
    17    10    31 1   
    18    11    19 ar  
    19    11    23 ar  
    20    12    13 1   
    21    12    32 1   
    22    12    33 1   
    23    13    14 ar  
    24    13    18 ar  
    25    14    15 ar  
    26    14    34 1   
    27    15    16 ar  
    28    16    17 ar  
    29    16    25 1   
    30    17    18 ar  
    31    18    35 1   
    32    19    20 ar  
    33    19    27 1   
    34    20    21 ar  
    35    20    36 1   
    36    21    22 ar  
    37    21    37 1   
    38    22    23 ar  
    39    22    38 1   
    40    23    28 1   
    41    24    26 1   
    42    24    39 1   
    43    24    40 1   
    44    25    41 1   
    45    25    42 1   
    46    26    43 1   
    47    26    44 1   
    48    26    45 1   
@<TRIPOS>SUBSTRUCTURE
     1 SCX         1 TEMP              0 ****  ****    0 ROOT
