@<TRIPOS>MOLECULE
molecule
   45    48     1     0     0
SMALL
bcc


@<TRIPOS>ATOM
      1 C01          0.0000     0.0000     0.0000 cc         1 SCX      -0.325800
      2 C02          1.3900     0.0000     0.0000 cd         1 SCX       0.440500
      3 N03          1.7870     0.0000     1.3120 na         1 SCX       0.002200
      4 N04          0.6350    -0.0010     2.1060 nc         1 SCX      -0.595100
      5 C05         -0.4200     0.0050     1.3230 cd         1 SCX       0.426500
      6 N06          2.2920     0.0020    -0.9890 nd         1 SCX      -0.697000
      7 C07          3.5900     0.0020    -0.7250 cc         1 SCX       0.559800
      8 C08          4.0390     0.0020     0.6080 cd         1 SCX      -0.410300
      9 C09          3.1240    -0.0000     1.6210 cc         1 SCX       0.333300
     10 N10          3.5360    -0.0000     2.9370 nu         1 SCX      -0.800600
     11 C11          4.5700     0.0040    -1.8350 ca         1 SCX      -0.219500
     12 C12          4.9670    -0.0000     3.2560 c3         1 SCX       0.305100
     13 C13          5.1480    -0.0010     4.7520 ca         1 SCX      -0.450900
     14 C14          5.2340    -1.1930     5.4540 ca         1 SCX       0.524700
     15 N15          5.3920    -1.1580     6.7670 nb         1 SCX      -0.798500
     16 C16          5.4690    -0.0020     7.4090 ca         1 SCX       0.953900
     17 N17          5.3910     1.1550     6.7680 nb         1 SCX      -0.798500
     18 C18          5.2380     1.1900     5.4550 ca         1 SCX       0.524700
     19 C19          5.0340     1.2120    -2.3600 ca         1 SCX       0.184900
     20 C20          5.9490     1.2050    -3.3960 ca         1 SCX      -0.187000
     21 C21          6.4060     0.0070    -3.9120 ca         1 SCX      -0.071000
     22 C22          5.9510    -1.1940    -3.3970 ca         1 SCX      -0.187000
     23 C23          5.0400    -1.2040    -2.3580 ca         1 SCX       0.184900
     24 C24         -0.8900     0.0000    -1.2160 c3         1 SCX       0.007800
     25 N25          5.6350    -0.0030     8.7840 nv         1 SCX      -0.981500
     26 C26         -1.0880    -1.4370    -1.7030 c3         1 SCX      -0.090100
     27 F27          4.5890     2.3850    -1.8580 f          1 SCX      -0.124400
     28 F28          4.6000    -2.3770    -1.8520 f          1 SCX      -0.124400
     29 H05         -1.4510     0.0130     1.6560 h4         1 SCX       0.060800
     30 H08          5.1000     0.0020     0.8280 ha         1 SCX       0.159000
     31 HN10         2.8590     0.0180     3.6740 hn         1 SCX       0.467800
     32 H121         5.4310     0.8840     2.8360 h1         1 SCX       0.052200
     33 H122         5.4310    -0.8850     2.8360 h1         1 SCX       0.052200
     34 H14          5.1710    -2.1420     4.9350 h4         1 SCX       0.034600
     35 H18          5.1750     2.1390     4.9350 h4         1 SCX       0.034600
     36 H20          6.3100     2.1420    -3.8040 ha         1 SCX       0.152000
     37 H21          7.1220     0.0080    -4.7250 ha         1 SCX       0.144000
     38 H22          6.3150    -2.1290    -3.8050 ha         1 SCX       0.152000
     39 H241        -0.4290     0.5870    -2.0010 hc         1 SCX       0.046200
     40 H242        -1.8510     0.4310    -0.9610 hc         1 SCX       0.046200
     41 H251         5.6940     0.8640     9.2820 hn         1 SCX       0.453800
     42 H252         5.6950    -0.8700     9.2800 hn         1 SCX       0.453800
     43 H261        -1.1450    -2.1020    -0.8500 hc         1 SCX       0.034033
     44 H262        -2.0070    -1.5010    -2.2730 hc         1 SCX       0.034033
     45 H263        -0.2530    -1.7240    -2.3300 hc         1 SCX       0.034033
@<TRIPOS>BOND
     1    25    16 1
     2    17    16 ar
     3    17    18 ar
     4    16    15 ar
     5    18    13 ar
     6    15    14 ar
     7    13    14 ar
     8    13    12 1
     9     4     5 2
    10     4     3 1
    11     5     1 1
    12    10    12 1
    13    10     9 1
    14     3     9 1
    15     3     2 1
    16     9     8 2
    17     1     2 2
    18     1    24 1
    19    26    24 1
    20     2     6 1
    21    28    23 1
    22     8     7 1
    23     6     7 2
    24     7    11 1
    25    23    11 ar
    26    23    22 ar
    27    11    19 ar
    28    22    21 ar
    29    19    27 1
    30    19    20 ar
    31    21    20 ar
    32     5    29 1
    33     8    30 1
    34    10    31 1
    35    12    32 1
    36    12    33 1
    37    14    34 1
    38    18    35 1
    39    20    36 1
    40    21    37 1
    41    22    38 1
    42    24    39 1
    43    24    40 1
    44    25    41 1
    45    25    42 1
    46    26    43 1
    47    26    44 1
    48    26    45 1
@<TRIPOS>SUBSTRUCTURE
     1 SCX         1 TEMP              0 ****  ****    0 ROOT
