@<TRIPOS>MOLECULE
molecule
   45    49     1     0     0
SMALL
bcc


@<TRIPOS>ATOM
      1 C01          0.0000     0.0000     0.0000 cc         1 SCZ      -0.301800
      2 C02          1.3900     0.0000     0.0000 cd         1 SCZ       0.452500
      3 N03          1.7880     0.0000     1.3130 na         1 SCZ      -0.001800
      4 N04          0.6340    -0.0000     2.1060 nc         1 SCZ      -0.596100
      5 C05         -0.4200     0.0050     1.3220 cd         1 SCZ       0.429500
      6 N06          2.2930     0.0010    -0.9890 nd         1 SCZ      -0.722000
      7 C07          3.5890    -0.0000    -0.7240 cc         1 SCZ       0.569800
      8 C08          4.0390    -0.0010     0.6080 cd         1 SCZ      -0.422300
      9 C09          3.1230     0.0000     1.6210 cc         1 SCZ       0.333300
     10 N10          3.5360    -0.0000     2.9380 nu         1 SCZ      -0.801600
     11 C11          4.5700    -0.0000    -1.8350 ca         1 SCZ      -0.156500
     12 C12          4.9660     0.0000     3.2560 c3         1 SCZ       0.292100
     13 C13          5.1470     0.0000     4.7520 ca         1 SCZ      -0.251600
     14 C14          5.2250     1.1910     5.4480 ca         1 SCZ       0.441200
     15 N15          5.3790     1.1990     6.7580 nb         1 SCZ      -0.687000
     16 C16          5.4620     0.0820     7.4530 ca         1 SCZ       0.433200
     17 C17          5.3930    -1.1480     6.8250 ca         1 SCZ      -0.256300
     18 C18          5.2320    -1.1960     5.4490 ca         1 SCZ      -0.072000
     19 C19          5.9380    -0.0060    -1.5610 ca         1 SCZ      -0.092000
     20 C20          6.8460    -0.0070    -2.6000 ca         1 SCZ      -0.138500
     21 C21          6.4030    -0.0010    -3.9110 ca         1 SCZ      -0.112000
     22 C22          5.0480     0.0060    -4.1880 ca         1 SCZ      -0.138500
     23 C23          4.1300     0.0000    -3.1580 ca         1 SCZ      -0.092000
     24 C24         -0.8890     0.0010    -1.2170 cx         1 SCZ      -0.030500
     25 C25         -1.8540    -1.1740    -1.3870 cx         1 SCZ      -0.142400
     26 C26         -2.3900     0.2040    -0.9940 cx         1 SCZ      -0.142400
     27 H05         -1.4510     0.0110     1.6550 h4         1 SCZ       0.061800
     28 H08          5.1000    -0.0020     0.8280 ha         1 SCZ       0.157000
     29 HN10         2.8590     0.0030     3.6750 hn         1 SCZ       0.468800
     30 H121         5.4290     0.8850     2.8360 h1         1 SCZ       0.053700
     31 H122         5.4300    -0.8840     2.8360 h1         1 SCZ       0.053700
     32 H14          5.1610     2.1300     4.9120 h4         1 SCZ       0.029100
     33 H16          5.5880     0.1280     8.5280 h4         1 SCZ       0.028100
     34 H17          5.4630    -2.0620     7.4020 ha         1 SCZ       0.144000
     35 H18          5.1740    -2.1460     4.9300 ha         1 SCZ       0.144000
     36 H19          6.2860    -0.0110    -0.5360 ha         1 SCZ       0.144000
     37 H20          7.9080    -0.0120    -2.3890 ha         1 SCZ       0.132500
     38 H21          7.1200     0.0010    -4.7230 ha         1 SCZ       0.130000
     39 H22          4.7070     0.0090    -5.2160 ha         1 SCZ       0.132500
     40 H23          3.0690     0.0060    -3.3770 ha         1 SCZ       0.144000
     41 H24         -0.5090     0.4140    -2.1430 hc         1 SCZ       0.092700
     42 H251        -1.8360    -1.9120    -0.5940 hc         1 SCZ       0.071700
     43 H252        -2.0470    -1.4760    -2.4090 hc         1 SCZ       0.071700
     44 H261        -2.9100     0.7440    -1.7760 hc         1 SCZ       0.071700
     45 H262        -2.6990     0.3080     0.0390 hc         1 SCZ       0.071700
@<TRIPOS>BOND
     1    15    16 ar
     2    15    14 ar
     3    16    17 ar
     4    14    13 ar
     5    17    18 ar
     6    13    18 ar
     7    13    12 1
     8    10    12 1
     9    10     9 1
    10     4     5 2
    11     4     3 1
    12     5     1 1
    13     9     3 1
    14     9     8 2
    15     3     2 1
    16     1     2 2
    17     1    24 1
    18     8     7 1
    19     2     6 1
    20    24    25 1
    21    24    26 1
    22     7     6 2
    23     7    11 1
    24    25    26 1
    25    11    23 ar
    26    11    19 ar
    27    23    22 ar
    28    19    20 ar
    29    22    21 ar
    30    20    21 ar
    31     5    27 1
    32     8    28 1
    33    10    29 1
    34    12    30 1
    35    12    31 1
    36    14    32 1
    37    16    33 1
    38    17    34 1
    39    18    35 1
    40    19    36 1
    41    20    37 1
    42    21    38 1
    43    22    39 1
    44    23    40 1
    45    24    41 1
    46    25    42 1
    47    25    43 1
    48    26    44 1
    49    26    45 1
@<TRIPOS>SUBSTRUCTURE
     1 SCZ         1 TEMP              0 ****  ****    0 ROOT
