@<TRIPOS>MOLECULE
SCZ
   45    49     1     0     0
SMALL
bcc


@<TRIPOS>ATOM
      1 C01          0.0000     0.0000     0.0000 cc         1 SCZ      -0.321800
      2 C02          1.3900     0.0000     0.0000 cd         1 SCZ       0.247500
      3 N03          1.7880     0.0000     1.3130 na         1 SCZ       0.484200
      4 N04          0.6340    -0.0000     2.1060 nd         1 SCZ      -0.761100
      5 C05         -0.4200     0.0050     1.3220 cc         1 SCZ       0.496500
      6 N06          2.2930     0.0010    -0.9890 nd         1 SCZ      -0.596000
      7 C07          3.5890    -0.0000    -0.7240 cc         1 SCZ       0.514800
      8 C08          4.0390    -0.0010     0.6080 cc         1 SCZ      -0.397300
      9 C09          3.1230     0.0000     1.6210 cd         1 SCZ       0.007300
     10 N10          3.5360    -0.0000     2.9380 nu         1 SCZ      -0.384600
     11 C11          4.5700    -0.0000    -1.8350 ca         1 SCZ      -0.161500
     12 C12          4.9660     0.0000     3.2560 c3         1 SCZ       0.233100
     13 C13          5.1470     0.0000     4.7520 ca         1 SCZ      -0.253600
     14 C14          5.2250     1.1910     5.4480 ca         1 SCZ       0.427200
     15 N15          5.3790     1.1990     6.7580 nb         1 SCZ      -0.579000
     16 C16          5.4620     0.0820     7.4530 ca         1 SCZ       0.419200
     17 C17          5.3930    -1.1480     6.8250 ca         1 SCZ      -0.221300
     18 C18          5.2320    -1.1960     5.4490 ca         1 SCZ      -0.047000
     19 C19          5.9380    -0.0060    -1.5610 ca         1 SCZ      -0.072500
     20 C20          6.8460    -0.0070    -2.6000 ca         1 SCZ      -0.110000
     21 C21          6.4030    -0.0010    -3.9110 ca         1 SCZ      -0.087000
     22 C22          5.0480     0.0060    -4.1880 ca         1 SCZ      -0.110000
     23 C23          4.1300     0.0000    -3.1580 ca         1 SCZ      -0.072500
     24 C24         -0.8890     0.0010    -1.2170 cx         1 SCZ       0.012500
     25 C25         -1.8540    -1.1740    -1.3870 cx         1 SCZ      -0.091400
     26 C26         -2.3900     0.2040    -0.9940 cx         1 SCZ      -0.091400
     27 H05         -1.4510     0.0110     1.6550 h4         1 SCZ       0.015800
     28 H08          5.1000    -0.0020     0.8280 ha         1 SCZ       0.150000
     29 HN10         2.8590     0.0030     3.6750 hn         1 SCZ       0.319800
     30 H121         5.4290     0.8850     2.8360 h1         1 SCZ       0.024200
     31 H122         5.4300    -0.8840     2.8360 h1         1 SCZ       0.024200
     32 H14          5.1610     2.1300     4.9120 h4         1 SCZ      -0.014900
     33 H16          5.5880     0.1280     8.5280 h4         1 SCZ      -0.016900
     34 H17          5.4630    -2.0620     7.4020 ha         1 SCZ       0.117000
     35 H18          5.1740    -2.1460     4.9300 ha         1 SCZ       0.114000
     36 H19          6.2860    -0.0110    -0.5360 ha         1 SCZ       0.116500
     37 H20          7.9080    -0.0120    -2.3890 ha         1 SCZ       0.104000
     38 H21          7.1200     0.0010    -4.7230 ha         1 SCZ       0.101000
     39 H22          4.7070     0.0090    -5.2160 ha         1 SCZ       0.104000
     40 H23          3.0690     0.0060    -3.3770 ha         1 SCZ       0.116500
     41 H24         -0.5090     0.4140    -2.1430 hc         1 SCZ       0.062700
     42 H251        -1.8360    -1.9120    -0.5940 hc         1 SCZ       0.044450
     43 H252        -2.0470    -1.4760    -2.4090 hc         1 SCZ       0.044450
     44 H261        -2.9100     0.7440    -1.7760 hc         1 SCZ       0.044450
     45 H262        -2.6990     0.3080     0.0390 hc         1 SCZ       0.044450
@<TRIPOS>BOND
     1     1     2 2   
     2     1     5 1   
     3     1    24 1   
     4     2     3 1   
     5     2     6 1   
     6     3     4 1   
     7     3     9 1   
     8     4     5 2   
     9     5    27 1   
    10     6     7 2   
    11     7     8 1   
    12     7    11 1   
    13     8     9 2   
    14     8    28 1   
    15     9    10 1   
    16    10    12 1   
    17    10    29 1   
    18    11    19 ar  
    19    11    23 ar  
    20    12    13 1   
    21    12    30 1   
    22    12    31 1   
    23    13    14 ar  
    24    13    18 ar  
    25    14    15 ar  
    26    14    32 1   
    27    15    16 ar  
    28    16    17 ar  
    29    16    33 1   
    30    17    18 ar  
    31    17    34 1   
    32    18    35 1   
    33    19    20 ar  
    34    19    36 1   
    35    20    21 ar  
    36    20    37 1   
    37    21    22 ar  
    38    21    38 1   
    39    22    23 ar  
    40    22    39 1   
    41    23    40 1   
    42    24    25 1   
    43    24    26 1   
    44    24    41 1   
    45    25    26 1   
    46    25    42 1   
    47    25    43 1   
    48    26    44 1   
    49    26    45 1   
@<TRIPOS>SUBSTRUCTURE
     1 SCZ         1 TEMP              0 ****  ****    0 ROOT
