@<TRIPOS>MOLECULE
molecule
   67    70     1     0     0
SMALL
bcc


@<TRIPOS>ATOM
      1 C1           0.0000     0.0000     0.0000 c3         1 SD1      -0.003100
      2 C2           1.5070     0.0000     0.0000 cc         1 SD1      -0.076600
      3 C3           2.2600     0.0000     1.1680 cd         1 SD1      -0.232600
      4 C4           1.6340     0.0050     2.4940 c          1 SD1       0.605700
      5 C5           0.1380     0.2820     2.5010 c3         1 SD1      -0.165400
      6 C6          -0.5050    -0.5060     1.3540 c3         1 SD1      -0.060000
      7 C7          -2.0250    -0.3410     1.4190 c3         1 SD1      -0.088600
      8 C8          -0.1530    -1.9880     1.5020 c3         1 SD1      -0.088600
      9 O9           2.2640    -0.1980     3.5110 o          1 SD1      -0.504100
     10 C10          3.6560    -0.0050     0.7660 cd         1 SD1      -0.104000
     11 C11          3.6550    -0.0060    -0.5820 cc         1 SD1      -0.134600
     12 N12          2.3600    -0.0010    -1.0330 na         1 SD1       0.005800
     13 C13          4.8840    -0.0090    -1.4550 c3         1 SD1      -0.020800
     14 C14          1.9840     0.0020    -2.3800 ca         1 SD1       0.091800
     15 C15          1.3450     1.1160    -2.9190 ca         1 SD1      -0.124000
     16 C16          0.9720     1.1280    -4.2430 ca         1 SD1      -0.102000
     17 C17          1.2320     0.0190    -5.0530 ca         1 SD1      -0.240600
     18 C18          1.8760    -1.1050    -4.5090 ca         1 SD1       0.275600
     19 C19          2.2520    -1.1030    -3.1740 ca         1 SD1      -0.139000
     20 C20          0.8330     0.0280    -6.4710 c          1 SD1       0.503700
     21 O21          0.9970    -0.9640    -7.1550 o          1 SD1      -0.397100
     22 N22          0.2860     1.1350    -7.0090 nz         1 SD1      -0.677400
     23 N23          2.1400    -2.2130    -5.3060 nu         1 SD1      -0.716000
     24 C24          3.2240    -2.1970    -6.1900 ca         1 SD1       0.245600
     25 C25          3.4180    -3.2540    -7.0700 ca         1 SD1      -0.323000
     26 C26          4.4930    -3.2390    -7.9450 ca         1 SD1       0.199100
     27 C27          5.3770    -2.1660    -7.9420 ca         1 SD1       0.025100
     28 C28          5.1810    -1.1090    -7.0620 ca         1 SD1       0.199100
     29 C29          4.1040    -1.1220    -6.1900 ca         1 SD1      -0.323000
     30 O30          6.0460    -0.0590    -7.0570 os         1 SD1      -0.296900
     31 C31          5.8470     0.9410    -6.0570 c3         1 SD1       0.127700
     32 O32          6.4330    -2.1510    -8.8020 os         1 SD1      -0.311900
     33 C33          6.2190    -1.5520   -10.0800 c3         1 SD1       0.132700
     34 O34          4.6830    -4.2740    -8.8060 os         1 SD1      -0.296900
     35 C35          3.7370    -5.3430    -8.7540 c3         1 SD1       0.127700
     36 H1          -0.3380    -0.6880    -0.7650 hc         1 SD1       0.055200
     37 H1A         -0.3380     1.0210    -0.1260 hc         1 SD1       0.055200
     38 H5          -0.2870    -0.0380     3.4450 hc         1 SD1       0.076700
     39 H5A         -0.0360     1.3420     2.3560 hc         1 SD1       0.076700
     40 H7          -2.3930    -0.7490     2.3530 hc         1 SD1       0.043533
     41 H7A         -2.4810    -0.8680     0.5900 hc         1 SD1       0.043533
     42 H7B         -2.2770     0.7110     1.3600 hc         1 SD1       0.043533
     43 H8           0.9200    -2.1140     1.4190 hc         1 SD1       0.043533
     44 H8A         -0.6440    -2.5560     0.7220 hc         1 SD1       0.043533
     45 H8B         -0.4840    -2.3430     2.4700 hc         1 SD1       0.043533
     46 H10          4.5210    -0.0080     1.4180 ha         1 SD1       0.182000
     47 H13          5.7630     0.1420    -0.8410 hc         1 SD1       0.050700
     48 H13A         4.8110     0.7890    -2.1840 hc         1 SD1       0.050700
     49 H13B         4.9600    -0.9610    -1.9670 hc         1 SD1       0.050700
     50 H15          1.1420     1.9760    -2.2930 ha         1 SD1       0.175000
     51 H16          0.4760     1.9970    -4.6570 ha         1 SD1       0.116000
     52 H19          2.7490    -1.9670    -2.7500 ha         1 SD1       0.191000
     53 HN22         0.1150     0.9830    -7.9830 hn         1 SD1       0.476133
     54 HN2A        -0.5780     1.3390    -6.5470 hn         1 SD1       0.476133
     55 HN23         1.5490    -3.0190    -5.2540 hn         1 SD1       0.472800
     56 H25          2.7300    -4.0900    -7.0720 ha         1 SD1       0.137500
     57 H29          3.9520    -0.2980    -5.5040 ha         1 SD1       0.137500
     58 H31          5.8910     0.4850    -5.0760 h1         1 SD1       0.043867
     59 H31A         4.8780     1.4040    -6.1970 h1         1 SD1       0.043867
     60 H31B         6.6220     1.6940    -6.1400 h1         1 SD1       0.043867
     61 H33          6.7120    -2.1430   -10.8430 h1         1 SD1       0.035700
     62 H33A         6.6280    -0.5490   -10.0810 h1         1 SD1       0.035700
     63 H33B         5.1570    -1.5090   -10.2870 h1         1 SD1       0.035700
     64 H35          3.7410    -5.7810    -7.7630 h1         1 SD1       0.043867
     65 H35A         2.7470    -4.9610    -8.9760 h1         1 SD1       0.043867
     66 H35B         4.0040    -6.0980    -9.4830 h1         1 SD1       0.043867
     67 H223         0.9150     1.9060    -6.8990 hn         1 SD1       0.476133
@<TRIPOS>BOND
     1     1     2 1
     2     1     6 1
     3     2     3 2
     4     2    12 1
     5     3     4 1
     6     3    10 1
     7     4     5 1
     8     4     9 2
     9     5     6 1
    10     6     7 1
    11     6     8 1
    12    10    11 2
    13    11    12 1
    14    11    13 1
    15    12    14 1
    16    14    15 ar
    17    14    19 ar
    18    15    16 ar
    19    16    17 ar
    20    17    18 ar
    21    17    20 1
    22    18    19 ar
    23    18    23 1
    24    20    21 2
    25    20    22 1
    26    23    24 1
    27    24    25 ar
    28    24    29 ar
    29    25    26 ar
    30    26    27 ar
    31    26    34 1
    32    27    28 ar
    33    27    32 1
    34    28    29 ar
    35    28    30 1
    36    30    31 1
    37    32    33 1
    38    34    35 1
    39     1    36 1
    40     1    37 1
    41     5    38 1
    42     5    39 1
    43     7    40 1
    44     7    41 1
    45     7    42 1
    46     8    43 1
    47     8    44 1
    48     8    45 1
    49    10    46 1
    50    13    47 1
    51    13    48 1
    52    13    49 1
    53    15    50 1
    54    16    51 1
    55    19    52 1
    56    22    53 1
    57    22    54 1
    58    23    55 1
    59    25    56 1
    60    29    57 1
    61    31    58 1
    62    31    59 1
    63    31    60 1
    64    33    61 1
    65    33    62 1
    66    33    63 1
    67    35    64 1
    68    35    65 1
    69    35    66 1
    70    67    22 1
@<TRIPOS>SUBSTRUCTURE
     1 SD1         1 TEMP              0 ****  ****    0 ROOT
