@<TRIPOS>MOLECULE
SD3
   18    17     1     0     0
SMALL
bcc


@<TRIPOS>ATOM
      1 C            0.0000     0.0000     0.0000 c          1 SD3       0.951600
      2 N            1.9970    -1.2000    -0.6920 nz         1 SD3       0.072400
      3 OXT         -0.6040    -1.0310    -0.1780 o          1 SD3      -0.819300
      4 CA           1.5070     0.0000     0.0000 c3         1 SD3      -0.177500
      5 CB           2.0160     0.0000     1.4430 c3         1 SD3      -0.085400
      6 CG           3.5180     0.1240     1.4460 c          1 SD3       0.553100
      7 OAD          5.6020     0.2610     2.6160 oh         1 SD3      -0.436100
      8 OD1          4.1220     0.2040     0.3970 o          1 SD3      -0.671100
      9 ND2          4.1900     0.1450     2.6130 ns         1 SD3      -0.019400
     10 O           -0.6710     1.1450     0.2010 o          1 SD3      -0.819300
     11 HN           2.0130    -1.9700    -0.0530 hn         1 SD3       0.218133
     12 HNA          2.9210    -1.0320    -1.0370 hn         1 SD3       0.218133
     13 HA           1.8680     0.8840    -0.5110 hx         1 SD3       0.103700
     14 HB           1.7290    -0.9260     1.9270 hc         1 SD3       0.063700
     15 HBA          1.5840     0.8370     1.9780 hc         1 SD3       0.063700
     16 HOAD         5.9130     0.2880     3.5060 ho         1 SD3       0.402000
     17 HND2         3.6910     0.0910     3.4790 hn         1 SD3       0.163500
     18 HN3          1.4030    -1.4000    -1.4730 hn         1 SD3       0.218133
@<TRIPOS>BOND
     1     1     3 1   
     2     1     4 1   
     3     1    10 1   
     4     2     4 1   
     5     2    11 1   
     6     2    12 1   
     7     2    18 1   
     8     4     5 1   
     9     4    13 1   
    10     5     6 1   
    11     5    14 1   
    12     5    15 1   
    13     6     8 2   
    14     6     9 1   
    15     7     9 1   
    16     7    16 1   
    17     9    17 1   
@<TRIPOS>SUBSTRUCTURE
     1 SD3         1 TEMP              0 ****  ****    0 ROOT
