@<TRIPOS>MOLECULE
molecule
   18    17     1     0     0
SMALL
bcc


@<TRIPOS>ATOM
      1 C            0.0000     0.0000     0.0000 c          1 SD3       0.863600
      2 N            1.9970    -1.2000    -0.6920 nz         1 SD3      -0.793600
      3 OXT         -0.6040    -1.0310    -0.1780 o          1 SD3      -0.772800
      4 CA           1.5070     0.0000     0.0000 c3         1 SD3       0.007500
      5 CB           2.0160     0.0000     1.4430 c3         1 SD3      -0.159400
      6 CG           3.5180     0.1240     1.4460 c          1 SD3       0.660100
      7 OAD          5.6020     0.2610     2.6160 oh         1 SD3      -0.359100
      8 OD1          4.1220     0.2040     0.3970 o          1 SD3      -0.623100
      9 ND2          4.1900     0.1450     2.6130 ns         1 SD3      -0.455400
     10 O           -0.6710     1.1450     0.2010 o          1 SD3      -0.772800
     11 HN           2.0130    -1.9700    -0.0530 hn         1 SD3       0.445800
     12 HNA          2.9210    -1.0320    -1.0370 hn         1 SD3       0.445800
     13 HA           1.8680     0.8840    -0.5110 hx         1 SD3       0.123700
     14 HB           1.7290    -0.9260     1.9270 hc         1 SD3       0.102700
     15 HBA          1.5840     0.8370     1.9780 hc         1 SD3       0.102700
     16 HOAD         5.9130     0.2880     3.5060 ho         1 SD3       0.408000
     17 HND2         3.6910     0.0910     3.4790 hn         1 SD3       0.332500
     18 HN3          1.4030    -1.4000    -1.4730 hn         1 SD3       0.445800
@<TRIPOS>BOND
     1     1     3 1
     2     1     4 1
     3     1    10 1
     4     2     4 1
     5     2    11 1
     6     2    12 1
     7     4     5 1
     8     4    13 1
     9     5     6 1
    10     5    14 1
    11     5    15 1
    12     6     8 2
    13     6     9 1
    14     7     9 1
    15     7    16 1
    16     9    17 1
    17    18     2 1
@<TRIPOS>SUBSTRUCTURE
     1 SD3         1 TEMP              0 ****  ****    0 ROOT
