@<TRIPOS>MOLECULE
molecule
   50    53     1     0     0
SMALL
bcc


@<TRIPOS>ATOM
      1 N01          0.0000     0.0000     0.0000 nv         1 SD5      -1.081500
      2 C02          1.3870     0.0000     0.0000 ca         1 SD5       0.690200
      3 C03          2.0750     0.0000     1.2110 ca         1 SD5      -0.223300
      4 C04          3.4550    -0.0010     1.2040 ca         1 SD5      -0.104300
      5 C05          4.1140    -0.0010    -0.0320 cp         1 SD5      -0.242800
      6 C06          3.3580    -0.0010    -1.2020 ca         1 SD5       0.450200
      7 N07          2.0410    -0.0060    -1.1520 nb         1 SD5      -0.695000
      8 C08          5.5950    -0.0000    -0.0940 cp         1 SD5       0.547800
      9 C09          6.2500     0.0050    -1.3230 ca         1 SD5      -0.414600
     10 C10          7.6440     0.0050    -1.3310 ca         1 SD5       0.677200
     11 N11          8.2970    -0.0000    -0.1720 nb         1 SD5      -0.802000
     12 C12          7.6410    -0.0050     0.9790 ca         1 SD5       0.910900
     13 N13          6.3180    -0.0010     1.0260 nb         1 SD5      -0.801000
     14 N14          8.3570    -0.0110     2.1620 nh         1 SD5      -0.677300
     15 C15          9.2800    -1.1540     2.2150 c3         1 SD5       0.123800
     16 C16         10.0930    -1.0890     3.5110 c3         1 SD5       0.135400
     17 O17          9.1990    -1.0630     4.6270 os         1 SD5      -0.425600
     18 C18          8.2870     0.0380     4.6080 c3         1 SD5       0.135400
     19 C19          7.4560    -0.0170     3.3240 c3         1 SD5       0.123800
     20 N20          8.3400     0.0100    -2.5290 nh         1 SD5      -0.695300
     21 C21          9.7910     0.0100    -2.2950 c3         1 SD5       0.132800
     22 C22         10.5190     0.0760    -3.6410 c3         1 SD5       0.134900
     23 O23         10.1020    -1.0210    -4.4570 os         1 SD5      -0.422600
     24 C24          8.6930    -1.0520    -4.7050 c3         1 SD5       0.134900
     25 C25          7.9470    -1.1290    -3.3720 c3         1 SD5       0.132800
     26 C26          4.2340     0.0000     2.4940 c3         1 SD5       0.690200
     27 F27          5.0400     1.1420     2.5510 f          1 SD5      -0.213633
     28 F28          3.3460     0.0000     3.5750 f          1 SD5      -0.213633
     29 F29          5.0390    -1.1430     2.5520 f          1 SD5      -0.213633
     30 HN01        -0.5000     0.8670    -0.0120 hn         1 SD5       0.442300
     31 HN0A        -0.5000    -0.8670    -0.0130 hn         1 SD5       0.442300
     32 H03          1.5320     0.0000     2.1490 ha         1 SD5       0.166000
     33 H06          3.8580    -0.0040    -2.1630 h4         1 SD5       0.034100
     34 H09          5.6900     0.0100    -2.2500 ha         1 SD5       0.150000
     35 H15          8.7130    -2.0770     2.1910 h1         1 SD5       0.068450
     36 H15A         9.9520    -1.1140     1.3660 h1         1 SD5       0.068450
     37 H16         10.6980    -0.1900     3.5120 h1         1 SD5       0.055950
     38 H16A        10.7320    -1.9610     3.5800 h1         1 SD5       0.055950
     39 H18          7.6290    -0.0240     5.4660 h1         1 SD5       0.055950
     40 H18A         8.8430     0.9670     4.6390 h1         1 SD5       0.055950
     41 H19          6.8640    -0.9240     3.3170 h1         1 SD5       0.068450
     42 H19A         6.8040     0.8480     3.2790 h1         1 SD5       0.068450
     43 H21         10.0600     0.8720    -1.6970 h1         1 SD5       0.060200
     44 H21A        10.0730    -0.8990    -1.7770 h1         1 SD5       0.060200
     45 H22         11.5880     0.0160    -3.4760 h1         1 SD5       0.057700
     46 H22A        10.2750     1.0070    -4.1370 h1         1 SD5       0.057700
     47 H24          8.4000    -0.1510    -5.2310 h1         1 SD5       0.057700
     48 H24A         8.4510    -1.9210    -5.3050 h1         1 SD5       0.057700
     49 H25          8.2020    -2.0540    -2.8690 h1         1 SD5       0.060200
     50 H25A         6.8800    -1.0920    -3.5530 h1         1 SD5       0.060200
@<TRIPOS>BOND
     1     1     2 1
     2     1    30 1
     3     1    31 1
     4     3     2 ar
     5     2     7 ar
     6     3     4 ar
     7     3    32 1
     8    26     4 1
     9     4     5 ar
    10     5     8 1
    11     5     6 ar
    12     7     6 ar
    13     6    33 1
    14     9     8 ar
    15     8    13 ar
    16     9    10 ar
    17     9    34 1
    18    20    10 1
    19    10    11 ar
    20    11    12 ar
    21    13    12 ar
    22    12    14 1
    23    14    19 1
    24    14    15 1
    25    15    16 1
    26    15    35 1
    27    15    36 1
    28    16    17 1
    29    16    37 1
    30    16    38 1
    31    18    17 1
    32    19    18 1
    33    18    39 1
    34    18    40 1
    35    19    41 1
    36    19    42 1
    37    25    20 1
    38    20    21 1
    39    21    22 1
    40    21    43 1
    41    21    44 1
    42    23    22 1
    43    22    45 1
    44    22    46 1
    45    24    23 1
    46    25    24 1
    47    24    47 1
    48    24    48 1
    49    25    49 1
    50    25    50 1
    51    27    26 1
    52    29    26 1
    53    26    28 1
@<TRIPOS>SUBSTRUCTURE
     1 SD5         1 TEMP              0 ****  ****    0 ROOT
