@<TRIPOS>MOLECULE
SD5
   50    53     1     0     0
SMALL
bcc


@<TRIPOS>ATOM
      1 N01          0.0000     0.0000     0.0000 nv         1 SD5      -0.657500
      2 C02          1.3870     0.0000     0.0000 ca         1 SD5       0.505200
      3 C03          2.0750     0.0000     1.2110 ca         1 SD5      -0.177300
      4 C04          3.4550    -0.0010     1.2040 ca         1 SD5      -0.138300
      5 C05          4.1140    -0.0010    -0.0320 cp         1 SD5      -0.222800
      6 C06          3.3580    -0.0010    -1.2020 ca         1 SD5       0.420200
      7 N07          2.0410    -0.0060    -1.1520 nb         1 SD5      -0.568000
      8 C08          5.5950    -0.0000    -0.0940 cp         1 SD5       0.517800
      9 C09          6.2500     0.0050    -1.3230 ca         1 SD5      -0.397600
     10 C10          7.6440     0.0050    -1.3310 ca         1 SD5       0.554200
     11 N11          8.2970    -0.0000    -0.1720 nb         1 SD5      -0.688000
     12 C12          7.6410    -0.0050     0.9790 ca         1 SD5       0.752900
     13 N13          6.3180    -0.0010     1.0260 nb         1 SD5      -0.703000
     14 N14          8.3570    -0.0110     2.1620 nh         1 SD5      -0.433300
     15 C15          9.2800    -1.1540     2.2150 c3         1 SD5       0.075300
     16 C16         10.0930    -1.0890     3.5110 c3         1 SD5       0.213900
     17 O17          9.1990    -1.0630     4.6270 os         1 SD5      -0.410600
     18 C18          8.2870     0.0380     4.6080 c3         1 SD5       0.213900
     19 C19          7.4560    -0.0170     3.3240 c3         1 SD5       0.075300
     20 N20          8.3400     0.0100    -2.5290 nh         1 SD5      -0.457300
     21 C21          9.7910     0.0100    -2.2950 c3         1 SD5       0.100300
     22 C22         10.5190     0.0760    -3.6410 c3         1 SD5       0.211400
     23 O23         10.1020    -1.0210    -4.4570 os         1 SD5      -0.408600
     24 C24          8.6930    -1.0520    -4.7050 c3         1 SD5       0.211400
     25 C25          7.9470    -1.1290    -3.3720 c3         1 SD5       0.100300
     26 C26          4.2340     0.0000     2.4940 c3         1 SD5       0.667200
     27 F27          5.0400     1.1420     2.5510 f          1 SD5      -0.204633
     28 F28          3.3460     0.0000     3.5750 f          1 SD5      -0.204633
     29 F29          5.0390    -1.1430     2.5520 f          1 SD5      -0.204633
     30 HN01        -0.5000     0.8670    -0.0120 hn         1 SD5       0.282300
     31 HN0A        -0.5000    -0.8670    -0.0130 hn         1 SD5       0.282300
     32 H03          1.5320     0.0000     2.1490 ha         1 SD5       0.137000
     33 H06          3.8580    -0.0040    -2.1630 h4         1 SD5      -0.008900
     34 H09          5.6900     0.0100    -2.2500 ha         1 SD5       0.141000
     35 H15          8.7130    -2.0770     2.1910 h1         1 SD5       0.042950
     36 H15A         9.9520    -1.1140     1.3660 h1         1 SD5       0.042950
     37 H16         10.6980    -0.1900     3.5120 h1         1 SD5       0.014450
     38 H16A        10.7320    -1.9610     3.5800 h1         1 SD5       0.014450
     39 H18          7.6290    -0.0240     5.4660 h1         1 SD5       0.014450
     40 H18A         8.8430     0.9670     4.6390 h1         1 SD5       0.014450
     41 H19          6.8640    -0.9240     3.3170 h1         1 SD5       0.042950
     42 H19A         6.8040     0.8480     3.2790 h1         1 SD5       0.042950
     43 H21         10.0600     0.8720    -1.6970 h1         1 SD5       0.032200
     44 H21A        10.0730    -0.8990    -1.7770 h1         1 SD5       0.032200
     45 H22         11.5880     0.0160    -3.4760 h1         1 SD5       0.015700
     46 H22A        10.2750     1.0070    -4.1370 h1         1 SD5       0.015700
     47 H24          8.4000    -0.1510    -5.2310 h1         1 SD5       0.015700
     48 H24A         8.4510    -1.9210    -5.3050 h1         1 SD5       0.015700
     49 H25          8.2020    -2.0540    -2.8690 h1         1 SD5       0.032200
     50 H25A         6.8800    -1.0920    -3.5530 h1         1 SD5       0.032200
@<TRIPOS>BOND
     1     1     2 1   
     2     1    30 1   
     3     1    31 1   
     4     2     3 ar  
     5     2     7 ar  
     6     3     4 ar  
     7     3    32 1   
     8     4     5 ar  
     9     4    26 1   
    10     5     6 ar  
    11     5     8 1   
    12     6     7 ar  
    13     6    33 1   
    14     8     9 ar  
    15     8    13 ar  
    16     9    10 ar  
    17     9    34 1   
    18    10    11 ar  
    19    10    20 1   
    20    11    12 ar  
    21    12    13 ar  
    22    12    14 1   
    23    14    15 1   
    24    14    19 1   
    25    15    16 1   
    26    15    35 1   
    27    15    36 1   
    28    16    17 1   
    29    16    37 1   
    30    16    38 1   
    31    17    18 1   
    32    18    19 1   
    33    18    39 1   
    34    18    40 1   
    35    19    41 1   
    36    19    42 1   
    37    20    21 1   
    38    20    25 1   
    39    21    22 1   
    40    21    43 1   
    41    21    44 1   
    42    22    23 1   
    43    22    45 1   
    44    22    46 1   
    45    23    24 1   
    46    24    25 1   
    47    24    47 1   
    48    24    48 1   
    49    25    49 1   
    50    25    50 1   
    51    26    27 1   
    52    26    28 1   
    53    26    29 1   
@<TRIPOS>SUBSTRUCTURE
     1 SD5         1 TEMP              0 ****  ****    0 ROOT
