@<TRIPOS>MOLECULE
molecule
   46    49     1     0     0
SMALL
bcc


@<TRIPOS>ATOM
      1 C1           0.0000     0.0000     0.0000 c2         1 SD8       0.688200
      2 C2           1.5030     0.0000     0.0000 c3         1 SD8      -0.102600
      3 C3           1.0570    -1.2620     2.3750 ca         1 SD8      -0.039100
      4 C4           1.5120    -2.0730     3.4010 ca         1 SD8      -0.084000
      5 C5           0.6960    -3.0660     3.9120 ca         1 SD8      -0.143000
      6 C6          -0.5760    -3.2510     3.3990 ca         1 SD8      -0.114000
      7 C7          -1.0420    -2.4480     2.3790 ca         1 SD8      -0.113000
      8 C8          -0.2300    -1.4400     1.8520 ca         1 SD8       0.205400
      9 C9           0.0990     1.4110    -2.0300 c3         1 SD8       0.236800
     10 C10         -0.5640     1.0710    -3.3680 c3         1 SD8       0.114800
     11 C11         -2.6380     0.5710    -2.3490 c3         1 SD8       0.114800
     12 C12         -2.1110     0.8770    -0.9450 c3         1 SD8       0.236800
     13 C13         -2.5150     1.1390    -4.5620 cc         1 SD8       0.674300
     14 C14         -3.1390     0.3960    -7.0640 cc         1 SD8      -0.060400
     15 C15         -4.0930     0.9370    -6.2380 cd         1 SD8       0.339800
     16 C16         -5.4730     1.1190    -6.7100 c          1 SD8       0.575600
     17 C17         -7.7650     1.8300    -6.3570 c3         1 SD8       0.152400
     18 C18         -8.6080     2.4490    -5.2400 c3         1 SD8      -0.095100
     19 N1          -0.7090    -0.6560     0.8440 ne         1 SD8      -0.718100
     20 N2          -0.6470     0.7360    -0.9560 nh         1 SD8      -0.782600
     21 N3          -1.9810     1.4490    -3.3220 nh         1 SD8      -0.592300
     22 N4          -3.7470     1.3010    -5.0010 nd         1 SD8      -0.691000
     23 O1          -5.7780     0.7890    -7.8400 o          1 SD8      -0.555000
     24 O2          -6.4020     1.6510    -5.8910 os         1 SD8      -0.412900
     25 S1           2.0980     0.0000     1.7190 ss         1 SD8      -0.223000
     26 S2          -1.7130     0.4210    -5.9870 ss         1 SD8      -0.346300
     27 H21          1.8540    -0.8990    -0.4920 h1         1 SD8       0.090200
     28 H22          1.8540     0.8990    -0.4920 h1         1 SD8       0.090200
     29 H4           2.5070    -1.9300     3.8040 ha         1 SD8       0.138000
     30 H5           1.0540    -3.7010     4.7130 ha         1 SD8       0.132000
     31 H6          -1.2110    -4.0300     3.8030 ha         1 SD8       0.132000
     32 H7          -2.0390    -2.6010     1.9850 ha         1 SD8       0.144000
     33 H91          0.0730     2.4830    -1.8730 h1         1 SD8       0.072200
     34 H92          1.1250     1.0630    -2.0340 h1         1 SD8       0.072200
     35 H101        -0.4810     0.0070    -3.5510 h1         1 SD8       0.065700
     36 H102        -0.0720     1.6190    -4.1630 h1         1 SD8       0.065700
     37 H111        -2.4250    -0.4620    -2.5960 h1         1 SD8       0.065700
     38 H112        -3.7080     0.7400    -2.3760 h1         1 SD8       0.065700
     39 H121        -2.3760     1.8910    -0.6700 h1         1 SD8       0.072200
     40 H122        -2.5380     0.1780    -0.2360 h1         1 SD8       0.072200
     41 H14         -3.2270     0.0500    -8.0870 h4         1 SD8       0.218000
     42 H171        -8.1810     0.8690    -6.6340 h1         1 SD8       0.046200
     43 H172        -7.7680     2.4870    -7.2190 h1         1 SD8       0.046200
     44 H181        -8.6050     1.7920    -4.3790 hc         1 SD8       0.048367
     45 H182        -9.6250     2.5830    -5.5880 hc         1 SD8       0.048367
     46 H183        -8.1920     3.4100    -4.9630 hc         1 SD8       0.048367
@<TRIPOS>BOND
     1     1     2 1
     2     1    19 2
     3     1    20 1
     4     2    25 1
     5     2    27 1
     6     2    28 1
     7     3     4 ar
     8     3     8 ar
     9     3    25 1
    10     4     5 ar
    11     4    29 1
    12     5     6 ar
    13     5    30 1
    14     6     7 ar
    15     6    31 1
    16     7     8 ar
    17     7    32 1
    18     8    19 1
    19     9    10 1
    20     9    20 1
    21     9    33 1
    22     9    34 1
    23    10    21 1
    24    10    35 1
    25    10    36 1
    26    11    12 1
    27    11    21 1
    28    11    37 1
    29    11    38 1
    30    12    20 1
    31    12    39 1
    32    12    40 1
    33    13    21 1
    34    13    22 2
    35    13    26 1
    36    14    15 2
    37    14    26 1
    38    14    41 1
    39    15    16 1
    40    15    22 1
    41    16    23 2
    42    16    24 1
    43    17    18 1
    44    17    24 1
    45    17    42 1
    46    17    43 1
    47    18    44 1
    48    18    45 1
    49    18    46 1
@<TRIPOS>SUBSTRUCTURE
     1 SD8         1 TEMP              0 ****  ****    0 ROOT
