@<TRIPOS>MOLECULE
SDA
   20    20     1     0     0
SMALL
bcc


@<TRIPOS>ATOM
      1 S1           0.0000     0.0000     0.0000 sy         1 SDA       0.943200
      2 N13          1.6560     0.0000     0.0000 nz         1 SDA      -0.132500
      3 O12         -0.3860     0.0000     1.3670 o          1 SDA      -0.496300
      4 O11         -0.3850     0.9710    -0.9630 o          1 SDA      -0.496300
      5 C2          -0.5260    -1.5520    -0.6460 ca         1 SDA      -0.243500
      6 C7          -0.7340    -1.6990    -2.0050 ca         1 SDA       0.028000
      7 C6          -1.1410    -2.9170    -2.5160 ca         1 SDA      -0.108600
      8 Cl8         -1.4000    -3.1000    -4.2240 cl         1 SDA       0.063100
      9 C5          -1.3560    -3.9910    -1.6610 ca         1 SDA       0.138600
     10 N10         -1.7740    -5.2220    -2.1740 nv         1 SDA      -0.489200
     11 C4          -1.1470    -3.8390    -0.2960 ca         1 SDA      -0.108600
     12 Cl9         -1.4070    -5.1800     0.7770 cl         1 SDA       0.063100
     13 C3          -0.7340    -2.6210     0.2080 ca         1 SDA       0.028000
     14 H131         1.9900     0.8720     0.3600 hn         1 SDA       0.313467
     15 H132         1.9900    -0.7480     0.5750 hn         1 SDA       0.313467
     16 H7          -0.5800    -0.8580    -2.6700 ha         1 SDA       0.134000
     17 H101        -2.6770    -5.5820    -1.9340 hn         1 SDA       0.300300
     18 H102        -1.1900    -5.7220    -2.8140 hn         1 SDA       0.300300
     19 H3          -0.5710    -2.5020     1.2720 ha         1 SDA       0.134000
     20 H133         1.9900    -0.1700    -0.9280 hn         1 SDA       0.313467
@<TRIPOS>BOND
     1     1     2 1   
     2     1     3 2   
     3     1     4 2   
     4     1     5 1   
     5     2    14 1   
     6     2    15 1   
     7     2    20 1   
     8     5     6 ar  
     9     5    13 ar  
    10     6     7 ar  
    11     6    16 1   
    12     7     8 1   
    13     7     9 ar  
    14     9    10 1   
    15     9    11 ar  
    16    10    17 1   
    17    10    18 1   
    18    11    12 1   
    19    11    13 ar  
    20    13    19 1   
@<TRIPOS>SUBSTRUCTURE
     1 SDA         1 TEMP              0 ****  ****    0 ROOT
