@<TRIPOS>MOLECULE
SDB
   26    26     1     0     0
SMALL
bcc


@<TRIPOS>ATOM
      1 O            0.0000     0.0000     0.0000 o          1 SDB      -0.863300
      2 C            1.2080     0.0000     0.0000 c          1 SDB       0.971600
      3 CA1          1.9610     0.0000     1.3050 c3         1 SDB       0.022500
      4 CB1          2.4390    -1.4220     1.6330 c3         1 SDB      -0.060400
      5 CG           3.1650    -1.3890     2.9800 c3         1 SDB       0.159800
      6 NE           2.3660    -0.6860     3.9760 n2         1 SDB      -0.608900
      7 N1           1.0700     0.4250     2.3970 nu         1 SDB      -0.493200
      8 C1           1.4250     0.1350     3.6870 c2         1 SDB       0.388200
      9 CA           0.6810     0.8080     4.8120 c3         1 SDB      -0.098800
     10 N           -0.6580     1.1980     4.3500 nz         1 SDB       0.062400
     11 CB           1.4480     2.0540     5.2580 c3         1 SDB       0.214400
     12 OG           0.8050     2.6260     6.3990 oh         1 SDB      -0.625800
     13 OXT          1.8800    -0.0060    -1.1620 o          1 SDB      -0.863300
     14 HA1          2.8120     0.6680     1.2460 h1         1 SDB       0.040700
     15 HB11         1.5450    -2.0150     1.7860 hc         1 SDB       0.051200
     16 HB12         3.1890    -1.6690     0.8910 hc         1 SDB       0.051200
     17 H1           0.2210     0.9170     2.2000 hn         1 SDB       0.280800
     18 HG1C         4.0480    -0.7800     2.8250 h1         1 SDB       0.038200
     19 HG2C         3.2170    -2.4180     3.3140 h1         1 SDB       0.038200
     20 HA           0.5900     0.1220     5.6460 hx         1 SDB       0.104700
     21 HN1         -0.5840     1.9900     3.7420 hn         1 SDB       0.230467
     22 HN2         -1.0750     0.4350     3.8530 hn         1 SDB       0.230467
     23 HB1C         1.4620     2.7770     4.4510 h1         1 SDB       0.031700
     24 HB2C         2.4640     1.7800     5.5150 h1         1 SDB       0.031700
     25 HG           1.4020     3.2100     6.8370 ho         1 SDB       0.434000
     26 HN3         -1.2260     1.4400     5.1380 hn         1 SDB       0.230467
@<TRIPOS>BOND
     1     1     2 1   
     2     2     3 1   
     3     2    13 1   
     4     3     4 1   
     5     3     7 1   
     6     3    14 1   
     7     4     5 1   
     8     4    15 1   
     9     4    16 1   
    10     5     6 1   
    11     5    18 1   
    12     5    19 1   
    13     6     8 2   
    14     7     8 1   
    15     7    17 1   
    16     8     9 1   
    17     9    10 1   
    18     9    11 1   
    19     9    20 1   
    20    10    21 1   
    21    10    22 1   
    22    10    26 1   
    23    11    12 1   
    24    11    23 1   
    25    11    24 1   
    26    12    25 1   
@<TRIPOS>SUBSTRUCTURE
     1 SDB         1 TEMP              0 ****  ****    0 ROOT
