@<TRIPOS>MOLECULE
SDC
   26    25     1     0     0
SMALL
bcc


@<TRIPOS>ATOM
      1 O01          0.0000     0.0000     0.0000 o          1 SDC      -0.792300
      2 NP2          3.4680     0.4730    -1.0800 nz         1 SDC       0.080400
      3 C03          2.0960    -0.0010    -1.3050 c3         1 SDC      -0.177500
      4 C04          1.3430     0.0000     0.0000 c          1 SDC       0.943600
      5 O05          1.9470     0.0000     1.0460 o          1 SDC      -0.792300
      6 C06          2.1330    -1.4220    -1.8720 c3         1 SDC       0.101700
      7 S07          3.0400    -1.4230    -3.4430 ss         1 SDC      -0.429200
      8 C08          2.9770    -3.1640    -3.9490 c3         1 SDC       0.115700
      9 C09          3.7120    -3.3350    -5.2800 c3         1 SDC       0.028400
     10 S10          3.6490    -5.0750    -5.7860 s6         1 SDC       0.842900
     11 O11          2.3210    -5.4480    -6.1300 o          1 SDC      -0.482800
     12 N12          4.4710    -5.1180    -7.2240 nz         1 SDC      -0.142500
     13 O13          4.4320    -5.8770    -4.9120 o          1 SDC      -0.482800
     14 H03          1.5990     0.6550    -2.0090 hx         1 SDC       0.101700
     15 H061         2.6290    -2.0790    -1.1680 h1         1 SDC       0.079200
     16 H062         1.1210    -1.7700    -2.0390 h1         1 SDC       0.079200
     17 H081         3.4530    -3.7760    -3.1920 h1         1 SDC       0.065700
     18 H082         1.9440    -3.4690    -4.0640 h1         1 SDC       0.065700
     19 H091         4.7440    -3.0300    -5.1650 h1         1 SDC       0.091700
     20 H092         3.2360    -2.7220    -6.0360 h1         1 SDC       0.091700
     21 H121         4.4820    -6.0560    -7.5740 hn         1 SDC       0.319133
     22 H122         4.0160    -4.5210    -7.8860 hn         1 SDC       0.319133
     23 HP22         3.8870     0.7090    -1.9570 hn         1 SDC       0.218800
     24 HP21         3.4490     1.2810    -0.4910 hn         1 SDC       0.218800
     25 H123         5.4100    -4.8040    -7.0810 hn         1 SDC       0.319133
     26 HP23         4.0020    -0.2490    -0.6380 hn         1 SDC       0.218800
@<TRIPOS>BOND
     1     1     4 1   
     2     2     3 1   
     3     2    23 1   
     4     2    24 1   
     5     2    26 1   
     6     3     4 1   
     7     3     6 1   
     8     3    14 1   
     9     4     5 1   
    10     6     7 1   
    11     6    15 1   
    12     6    16 1   
    13     7     8 1   
    14     8     9 1   
    15     8    17 1   
    16     8    18 1   
    17     9    10 1   
    18     9    19 1   
    19     9    20 1   
    20    10    11 2   
    21    10    12 1   
    22    10    13 2   
    23    12    21 1   
    24    12    22 1   
    25    12    25 1   
@<TRIPOS>SUBSTRUCTURE
     1 SDC         1 TEMP              0 ****  ****    0 ROOT
