@<TRIPOS>MOLECULE
molecule
   19    19     1     0     0
SMALL
bcc


@<TRIPOS>ATOM
      1 C1           0.0000     0.0000     0.0000 ca         1 SDF       0.040700
      2 P1          -1.6570     1.5740    -1.4850 p5         1 SDF       1.003700
      3 S1          -1.9320    -1.3790    -1.3240 sh         1 SDF      -0.417900
      4 Cl1          2.2510     0.0010    -1.5030 cl         1 SDF      -0.134400
      5 C2           1.3830     0.0000     0.0000 ca         1 SDF       0.038400
      6 Cl2          2.2500    -0.0010     3.9000 cl         1 SDF      -0.193400
      7 C3           2.0740     0.0000     1.1980 ca         1 SDF      -0.140000
      8 C4           1.3830    -0.0010     2.3950 ca         1 SDF      -0.001600
      9 C5          -0.0010     0.0000     2.3950 ca         1 SDF      -0.138000
     10 C6          -0.6910     0.0060     1.1970 ca         1 SDF      -0.063000
     11 C7          -0.7540     0.0010    -1.3050 c3         1 SDF      -0.013500
     12 O13         -0.6100     2.7960    -1.4930 o          1 SDF      -0.881833
     13 H3           3.1580     0.0000     1.1990 ha         1 SDF       0.119000
     14 H5          -0.5440     0.0050     3.3320 ha         1 SDF       0.119000
     15 H6          -1.7750     0.0060     1.1970 ha         1 SDF       0.199000
     16 H61         -1.6680    -2.1730    -2.3550 hs         1 SDF       0.151800
     17 H7          -0.0560    -0.1100    -2.1260 h1         1 SDF       0.075700
     18 O11         -2.4820     1.5640    -2.8670 o          1 SDF      -0.881833
     19 O12         -2.5950     1.7360    -0.3510 o          1 SDF      -0.881833
@<TRIPOS>BOND
     1     1    11 1
     2     1    10 ar
     3     2    18 1
     4     2    12 1
     5     3    11 1
     6     4     5 1
     7     5     1 ar
     8     6     8 1
     9     7     5 ar
    10     7     8 ar
    11     7    13 1
    12     8     9 ar
    13     9    10 ar
    14     9    14 1
    15    10    15 1
    16    11     2 1
    17    19     2 1
    18     3    16 1
    19    11    17 1
@<TRIPOS>SUBSTRUCTURE
     1 SDF         1 TEMP              0 ****  ****    0 ROOT
