@<TRIPOS>MOLECULE
SDF
   19    18     1     0     0
SMALL
bcc


@<TRIPOS>ATOM
      1 C1        118.0660 -118.7770  102.7690 c2        1 SDF     -0.084000
      2 P1       -445.2600  447.0980 -384.5560 p3        1 SDF      2.361000
      3 S1        116.4320 -118.7610  100.6280 sh        1 SDF      0.098000
      4 CL1       118.3640 -121.4010  102.3340 cl        1 SDF     -0.155000
      5 C2        118.9970 -119.7400  102.1010 c3        1 SDF     -0.002000
      6 CL2       122.4320 -118.9460  104.0700 cl        1 SDF     -0.130000
      7 C3        120.4090 -119.7360  102.5350 c1        1 SDF     -0.209000
      8 C4        120.7510 -118.9970  103.6430 c2        1 SDF     -0.234000
      9 C5        119.8720 -118.3410  104.4850 c1        1 SDF     -0.203000
     10 C6        118.4440 -118.3320  104.1480 c3        1 SDF     -0.130000
     11 C7        116.9780 -118.2770  102.1620 c2        1 SDF     -0.370000
     12 O13      -444.1750  448.0780 -384.7450 o         1 SDF     -1.120000
     13 H3        118.9630 -119.5830  100.9860 h1        1 SDF      0.122000
     14 H5        117.9330 -119.0090  104.8920 hc        1 SDF      0.098000
     15 H6        118.0520 -117.2920  104.3270 hc        1 SDF      0.098000
     16 H61       115.8050 -117.6510  100.2840 hs        1 SDF     -0.014000
     17 H7        116.3620 -117.5280  102.6780 h4        1 SDF      0.116000
     18 O11      -445.5010  446.0600 -385.5740 o         1 SDF     -1.120000
     19 O12      -446.1030  447.1570 -383.3490 o         1 SDF     -1.120000
@<TRIPOS>BOND
     1    1    5 1   
     2    1   10 1   
     3    1   11 1   
     4    2   12 1   
     5    2   18 1   
     6    2   19 1   
     7    3   11 1   
     8    3   16 1   
     9    4    5 1   
    10    5    7 1   
    11    5   13 1   
    12    6    8 1   
    13    7    8 1   
    14    8    9 1   
    15    9   10 1   
    16   10   14 1   
    17   10   15 1   
    18   11   17 1   
@<TRIPOS>SUBSTRUCTURE
     1 SDF         1 TEMP              0 ****  ****    0 ROOT
