@<TRIPOS>MOLECULE
molecule
   67    70     1     0     0
SMALL
bcc


@<TRIPOS>ATOM
      1 O            0.0000     0.0000     0.0000 o          1 SDJ      -0.618100
      2 C            1.2130     0.0000     0.0000 c          1 SDJ       0.670100
      3 N1           1.8870     0.0000     1.1670 n          1 SDJ      -0.469800
      4 C1           1.9660    -0.0050    -1.3050 c3         1 SDJ      -0.174400
      5 N            1.7050    -0.0170    -3.7370 nu         1 SDJ      -0.838600
      6 C20          0.1030     4.0790     3.8280 c          1 SDJ       0.535900
      7 C19          1.3030     3.7260     2.9860 c3         1 SDJ       0.045500
      8 C21          1.5290     4.8180     1.9380 c3         1 SDJ       0.015900
      9 C22          2.7970     4.5280     1.1770 cc         1 SDJ      -0.213900
     10 N4           2.8980     3.8690    -0.0180 na         1 SDJ      -0.278900
     11 C24          4.2090     3.8300    -0.3420 cd         1 SDJ       0.385400
     12 N3           4.8900     4.4290     0.5950 nc         1 SDJ      -0.697000
     13 C23          4.0470     4.8740     1.5400 cc         1 SDJ       0.304200
     14 N2           1.0660     2.4430     2.3120 n7         1 SDJ      -0.805200
     15 C17          1.1660    -0.0000     2.4490 c3         1 SDJ       0.117700
     16 C16          1.6740    -1.1710     3.2970 c3         1 SDJ      -0.090400
     17 C15          3.1960    -1.0770     3.4330 c3         1 SDJ      -0.066700
     18 C14          3.6940    -2.2300     4.3070 c3         1 SDJ      -0.075400
     19 C13          5.2150    -2.1480     4.4450 c3         1 SDJ      -0.080400
     20 C12          5.8580    -2.2460     3.0600 c3         1 SDJ      -0.078400
     21 C11          5.3630    -1.0900     2.1880 c3         1 SDJ      -0.076400
     22 C10          3.8400    -1.1650     2.0480 c3         1 SDJ      -0.082700
     23 C9           3.3550    -0.0060     1.1850 c3         1 SDJ       0.102000
     24 C2           0.9720    -0.0110    -2.4680 c3         1 SDJ       0.249800
     25 C3           1.0060    -0.0220    -4.9460 ca         1 SDJ       0.202600
     26 C8           1.7000    -0.0270    -6.1500 ca         1 SDJ      -0.207500
     27 C7           1.0060    -0.0330    -7.3440 ca         1 SDJ      -0.083500
     28 C6          -0.3770    -0.0350    -7.3430 ca         1 SDJ      -0.186000
     29 C5          -1.0690    -0.0290    -6.1460 ca         1 SDJ      -0.083500
     30 C4          -0.3830    -0.0290    -4.9490 ca         1 SDJ      -0.207500
     31 H1           2.5900    -0.8890    -1.3590 hc         1 SDJ       0.062200
     32 H2           2.5880     0.8800    -1.3670 hc         1 SDJ       0.062200
     33 H3           2.7050    -0.0530    -3.7360 hn         1 SDJ       0.431800
     34 H4           0.1040     4.9880     4.4170 h4         1 SDJ      -0.000800
     35 H5           2.1780     3.6460     3.6200 h1         1 SDJ       0.087700
     36 H6           1.6160     5.7790     2.4310 hc         1 SDJ       0.058700
     37 H7           0.6920     4.8380     1.2510 hc         1 SDJ       0.058700
     38 H8           2.1420     3.4880    -0.5510 hn         1 SDJ       0.304700
     39 H9           4.6250     3.3740    -1.2320 h5         1 SDJ       0.061100
     40 H11          4.3240     5.4110     2.4390 h4         1 SDJ       0.037100
     41 H12          0.1010     2.3730     2.0570 hn         1 SDJ       0.378800
     42 H16          0.1050    -0.1180     2.2670 h1         1 SDJ       0.096700
     43 H17          1.2200    -1.1270     4.2790 hc         1 SDJ       0.055200
     44 H18          1.4120    -2.1050     2.8140 hc         1 SDJ       0.055200
     45 H19          3.4590    -0.1330     3.8960 hc         1 SDJ       0.054700
     46 H20          3.4250    -3.1720     3.8460 hc         1 SDJ       0.044200
     47 H21          3.2400    -2.1590     5.2880 hc         1 SDJ       0.044200
     48 H22          5.5650    -2.9660     5.0630 hc         1 SDJ       0.042700
     49 H23          5.4850    -1.2030     4.9000 hc         1 SDJ       0.042700
     50 H24          5.5810    -3.1870     2.6010 hc         1 SDJ       0.043200
     51 H25          6.9350    -2.1880     3.1580 hc         1 SDJ       0.043200
     52 H26          5.8170    -1.1600     1.2070 hc         1 SDJ       0.044200
     53 H27          5.6350    -0.1490     2.6510 hc         1 SDJ       0.044200
     54 H28          3.5660    -2.1030     1.5810 hc         1 SDJ       0.059700
     55 H29          3.7280    -0.1270     0.1750 h1         1 SDJ       0.054200
     56 H30          3.7150     0.9280     1.6000 h1         1 SDJ       0.054200
     57 H31          0.3480     0.8730    -2.4150 h1         1 SDJ       0.056200
     58 H32          0.3500    -0.8960    -2.4070 h1         1 SDJ       0.056200
     59 H33          2.7830    -0.0260    -6.1520 ha         1 SDJ       0.131000
     60 H34          1.5460    -0.0370    -8.2830 ha         1 SDJ       0.127000
     61 H35         -0.9180    -0.0370    -8.2810 ha         1 SDJ       0.126000
     62 H36         -2.1530    -0.0320    -6.1480 ha         1 SDJ       0.127000
     63 H37         -0.9270    -0.0240    -4.0120 ha         1 SDJ       0.131000
     64 C18          1.4260     1.3160     3.1840 c3         1 SDJ       0.138800
     65 O1          -0.8500     3.3380     3.8630 o          1 SDJ      -0.517100
     66 H14          0.8250     1.3510     4.0850 h1         1 SDJ       0.043700
     67 H15          2.4750     1.3830     3.4460 h1         1 SDJ       0.043700
@<TRIPOS>BOND
     1     5    24 1
     2     5    25 1
     3    24     4 1
     4    30    25 ar
     5    30    29 ar
     6     1     2 2
     7     4     2 1
     8    25    26 ar
     9     2     3 1
    10    29    28 ar
    11     3    15 1
    12     3    23 1
    13    22    23 1
    14    22    21 1
    15    22    17 1
    16    16    15 1
    17    16    17 1
    18    18    19 1
    19    18    17 1
    20    20    21 1
    21    20    19 1
    22    15    64 1
    23    26    27 ar
    24    28    27 ar
    25    12    13 1
    26    12    11 2
    27    13     9 2
    28    64    14 1
    29    11    10 1
    30    14     7 1
    31     9    10 1
    32     9     8 1
    33     7     8 1
    34     7     6 1
    35     6    65 2
    36     4    31 1
    37     4    32 1
    38     5    33 1
    39     6    34 1
    40     7    35 1
    41     8    36 1
    42     8    37 1
    43    10    38 1
    44    11    39 1
    45    13    40 1
    46    14    41 1
    47    64    66 1
    48    64    67 1
    49    15    42 1
    50    16    43 1
    51    16    44 1
    52    17    45 1
    53    18    46 1
    54    18    47 1
    55    19    48 1
    56    19    49 1
    57    20    50 1
    58    20    51 1
    59    21    52 1
    60    21    53 1
    61    22    54 1
    62    23    55 1
    63    23    56 1
    64    24    57 1
    65    24    58 1
    66    26    59 1
    67    27    60 1
    68    28    61 1
    69    29    62 1
    70    30    63 1
@<TRIPOS>SUBSTRUCTURE
     1 SDJ         1 TEMP              0 ****  ****    0 ROOT
