@<TRIPOS>MOLECULE
SDJ
   67    70     1     0     0
SMALL
bcc


@<TRIPOS>ATOM
      1 O            0.0000     0.0000     0.0000 o          1 SDJ      -0.651100
      2 C            1.2130     0.0000     0.0000 c          1 SDJ       0.590100
      3 N1           1.8870     0.0000     1.1670 n          1 SDJ      -0.127800
      4 C1           1.9660    -0.0050    -1.3050 c3         1 SDJ      -0.113400
      5 N            1.7050    -0.0170    -3.7370 nu         1 SDJ      -0.446600
      6 C20          0.1030     4.0790     3.8280 c          1 SDJ       0.629900
      7 C19          1.3030     3.7260     2.9860 c3         1 SDJ      -0.014500
      8 C21          1.5290     4.8180     1.9380 c3         1 SDJ       0.106900
      9 C22          2.7970     4.5280     1.1770 cc         1 SDJ      -0.422900
     10 N4           2.8980     3.8690    -0.0180 na         1 SDJ       0.273100
     11 C24          4.2090     3.8300    -0.3420 cc         1 SDJ       0.193400
     12 N3           4.8900     4.4290     0.5950 nd         1 SDJ      -0.617000
     13 C23          4.0470     4.8740     1.5400 cd         1 SDJ       0.316200
     14 N2           1.0660     2.4430     2.3120 n7         1 SDJ      -0.591200
     15 C17          1.1660    -0.0000     2.4490 c3         1 SDJ       0.026700
     16 C16          1.6740    -1.1710     3.2970 c3         1 SDJ      -0.035400
     17 C15          3.1960    -1.0770     3.4330 c3         1 SDJ      -0.055700
     18 C14          3.6940    -2.2300     4.3070 c3         1 SDJ      -0.020400
     19 C13          5.2150    -2.1480     4.4450 c3         1 SDJ      -0.024400
     20 C12          5.8580    -2.2460     3.0600 c3         1 SDJ      -0.022400
     21 C11          5.3630    -1.0900     2.1880 c3         1 SDJ      -0.020400
     22 C10          3.8400    -1.1650     2.0480 c3         1 SDJ      -0.060700
     23 C9           3.3550    -0.0060     1.1850 c3         1 SDJ       0.031000
     24 C2           0.9720    -0.0110    -2.4680 c3         1 SDJ       0.177800
     25 C3           1.0060    -0.0220    -4.9460 ca         1 SDJ       0.067600
     26 C8           1.7000    -0.0270    -6.1500 ca         1 SDJ      -0.189500
     27 C7           1.0060    -0.0330    -7.3440 ca         1 SDJ      -0.050500
     28 C6          -0.3770    -0.0350    -7.3430 ca         1 SDJ      -0.164000
     29 C5          -1.0690    -0.0290    -6.1460 ca         1 SDJ      -0.050500
     30 C4          -0.3830    -0.0290    -4.9490 ca         1 SDJ      -0.189500
     31 H1           2.5900    -0.8890    -1.3590 hc         1 SDJ       0.030700
     32 H2           2.5880     0.8800    -1.3670 hc         1 SDJ       0.030700
     33 H3           2.7050    -0.0530    -3.7360 hn         1 SDJ       0.288800
     34 H4           0.1040     4.9880     4.4170 h4         1 SDJ      -0.034800
     35 H5           2.1780     3.6460     3.6200 h1         1 SDJ       0.061700
     36 H6           1.6160     5.7790     2.4310 hc         1 SDJ       0.021200
     37 H7           0.6920     4.8380     1.2510 hc         1 SDJ       0.021200
     38 H8           2.1420     3.4880    -0.5510 hn         1 SDJ       0.125700
     39 H9           4.6250     3.3740    -1.2320 h5         1 SDJ       0.021100
     40 H11          4.3240     5.4110     2.4390 h4         1 SDJ       0.002100
     41 H12          0.1010     2.3730     2.0570 hn         1 SDJ       0.286800
     42 H16          0.1050    -0.1180     2.2670 h1         1 SDJ       0.074700
     43 H17          1.2200    -1.1270     4.2790 hc         1 SDJ       0.027700
     44 H18          1.4120    -2.1050     2.8140 hc         1 SDJ       0.027700
     45 H19          3.4590    -0.1330     3.8960 hc         1 SDJ       0.039700
     46 H20          3.4250    -3.1720     3.8460 hc         1 SDJ       0.017700
     47 H21          3.2400    -2.1590     5.2880 hc         1 SDJ       0.017700
     48 H22          5.5650    -2.9660     5.0630 hc         1 SDJ       0.015200
     49 H23          5.4850    -1.2030     4.9000 hc         1 SDJ       0.015200
     50 H24          5.5810    -3.1870     2.6010 hc         1 SDJ       0.015200
     51 H25          6.9350    -2.1880     3.1580 hc         1 SDJ       0.015200
     52 H26          5.8170    -1.1600     1.2070 hc         1 SDJ       0.017700
     53 H27          5.6350    -0.1490     2.6510 hc         1 SDJ       0.017700
     54 H28          3.5660    -2.1030     1.5810 hc         1 SDJ       0.037700
     55 H29          3.7280    -0.1270     0.1750 h1         1 SDJ       0.031700
     56 H30          3.7150     0.9280     1.6000 h1         1 SDJ       0.031700
     57 H31          0.3480     0.8730    -2.4150 h1         1 SDJ       0.030700
     58 H32          0.3500    -0.8960    -2.4070 h1         1 SDJ       0.030700
     59 H33          2.7830    -0.0260    -6.1520 ha         1 SDJ       0.112500
     60 H34          1.5460    -0.0370    -8.2830 ha         1 SDJ       0.097500
     61 H35         -0.9180    -0.0370    -8.2810 ha         1 SDJ       0.103000
     62 H36         -2.1530    -0.0320    -6.1480 ha         1 SDJ       0.097500
     63 H37         -0.9270    -0.0240    -4.0120 ha         1 SDJ       0.112500
     64 C18          1.4260     1.3160     3.1840 c3         1 SDJ       0.113800
     65 O1          -0.8500     3.3380     3.8630 o          1 SDJ      -0.548100
     66 H14          0.8250     1.3510     4.0850 h1         1 SDJ       0.024200
     67 H15          2.4750     1.3830     3.4460 h1         1 SDJ       0.024200
@<TRIPOS>BOND
     1     1     2 2   
     2     2     3 1   
     3     2     4 1   
     4     3    15 1   
     5     3    23 1   
     6     4    24 1   
     7     4    31 1   
     8     4    32 1   
     9     5    24 1   
    10     5    25 1   
    11     5    33 1   
    12     6     7 1   
    13     6    34 1   
    14     6    65 2   
    15     7     8 1   
    16     7    14 1   
    17     7    35 1   
    18     8     9 1   
    19     8    36 1   
    20     8    37 1   
    21     9    10 1   
    22     9    13 2   
    23    10    11 1   
    24    10    38 1   
    25    11    12 2   
    26    11    39 1   
    27    12    13 1   
    28    13    40 1   
    29    14    41 1   
    30    14    64 1   
    31    15    16 1   
    32    15    42 1   
    33    15    64 1   
    34    16    17 1   
    35    16    43 1   
    36    16    44 1   
    37    17    18 1   
    38    17    22 1   
    39    17    45 1   
    40    18    19 1   
    41    18    46 1   
    42    18    47 1   
    43    19    20 1   
    44    19    48 1   
    45    19    49 1   
    46    20    21 1   
    47    20    50 1   
    48    20    51 1   
    49    21    22 1   
    50    21    52 1   
    51    21    53 1   
    52    22    23 1   
    53    22    54 1   
    54    23    55 1   
    55    23    56 1   
    56    24    57 1   
    57    24    58 1   
    58    25    26 ar  
    59    25    30 ar  
    60    26    27 ar  
    61    26    59 1   
    62    27    28 ar  
    63    27    60 1   
    64    28    29 ar  
    65    28    61 1   
    66    29    30 ar  
    67    29    62 1   
    68    30    63 1   
    69    64    66 1   
    70    64    67 1   
@<TRIPOS>SUBSTRUCTURE
     1 SDJ         1 TEMP              0 ****  ****    0 ROOT
