@<TRIPOS>MOLECULE
SDK
   84    85     1     0     0
SMALL
bcc


@<TRIPOS>ATOM
      1 C1           0.0000     0.0000     0.0000 ca         1 SDK      -0.090000
      2 C2           1.3810     0.0000     0.0000 ca         1 SDK      -0.106500
      3 C3           2.0730     0.0000     1.1970 ca         1 SDK      -0.073250
      4 C4           1.3820     0.0000     2.3930 ca         1 SDK      -0.120800
      5 C5          -0.0000    -0.0060     2.3940 ca         1 SDK      -0.073250
      6 C6          -0.6920    -0.0010     1.1970 ca         1 SDK      -0.106500
      7 C7           2.1360     0.0010     3.6990 c3         1 SDK       0.310700
      8 O8           2.3770     1.3700     4.1180 os         1 SDK      -0.424900
      9 C9           3.0380     1.6160     5.2640 c          1 SDK       0.686600
     10 O10          3.4330     0.6930     5.9490 o          1 SDK      -0.675000
     11 C11          4.0550     3.1550     6.8570 c3         1 SDK      -0.061300
     12 C12          5.4220     3.7100     6.4530 c3         1 SDK      -0.039900
     13 C13          6.1970     2.6440     5.6770 c3         1 SDK      -0.054700
     14 C14          7.4980     3.2470     5.1420 c3         1 SDK      -0.005100
     15 C15          6.5220     1.4730     6.6060 c3         1 SDK      -0.005100
     16 C16          3.3380     4.1620     7.7170 c          1 SDK       0.565100
     17 O17          2.2690     4.6110     7.3600 o          1 SDK      -0.649600
     18 N18          3.8810     4.5640     8.8820 ns         1 SDK      -0.192900
     19 C19          3.1840     5.5440     9.7180 c3         1 SDK      -0.039500
     20 N20          3.2630     2.8860     5.6540 ns         1 SDK      -0.133900
     21 C21          4.0000     5.8200    10.9530 c          1 SDK       0.596100
     22 O22          5.0540     5.2580    11.1210 o          1 SDK      -0.562100
     23 C23          3.9420    13.8960    21.1460 ca         1 SDK      -0.090000
     24 C24          4.6500    12.7700    21.5200 ca         1 SDK      -0.106500
     25 C25          5.3170    12.0240    20.5660 ca         1 SDK      -0.073250
     26 C26          5.2740    12.4040    19.2380 ca         1 SDK      -0.120800
     27 C27          4.5700    13.5330    18.8640 ca         1 SDK      -0.073250
     28 C28          3.9000    14.2760    19.8170 ca         1 SDK      -0.106500
     29 C29          6.0010    11.5900    18.1980 c3         1 SDK       0.310700
     30 O30          5.1150    10.5630    17.6810 os         1 SDK      -0.424900
     31 C31          5.5510     9.7110    16.7340 c          1 SDK       0.686600
     32 O32          6.6870     9.8010    16.3130 o          1 SDK      -0.675000
     33 C33          5.2160     7.8070    15.2530 c3         1 SDK      -0.061300
     34 C34          5.3860     6.4300    15.8980 c3         1 SDK      -0.039900
     35 C35          6.4260     6.5170    17.0170 c3         1 SDK      -0.054700
     36 C36          6.4980     5.1770    17.7520 c3         1 SDK      -0.005100
     37 C37          7.7950     6.8440    16.4170 c3         1 SDK      -0.005100
     38 C38          4.2230     7.7120    14.1230 c          1 SDK       0.565100
     39 O39          3.2080     8.3750    14.1520 o          1 SDK      -0.649600
     40 N40          4.4620     6.8910    13.0810 ns         1 SDK      -0.192900
     41 C41          3.4980     6.7990    11.9840 c3         1 SDK      -0.039500
     42 N42          4.7290     8.7590    16.2540 ns         1 SDK      -0.133900
     43 H1          -0.5410     0.0020    -0.9380 ha         1 SDK       0.102000
     44 H2           1.9220     0.0000    -0.9380 ha         1 SDK       0.103500
     45 H3           3.1560     0.0020     1.1960 ha         1 SDK       0.106500
     46 H5          -0.5420    -0.0060     3.3320 ha         1 SDK       0.106500
     47 H6          -1.7750    -0.0030     1.1960 ha         1 SDK       0.103500
     48 H71          3.0830    -0.5090     3.5690 h1         1 SDK       0.011700
     49 H72          1.5510    -0.5110     4.4540 h1         1 SDK       0.011700
     50 H11          4.1890     2.2350     7.4140 h1         1 SDK       0.092700
     51 H121         5.9770     3.9840     7.3420 hc         1 SDK       0.024450
     52 H122         5.2860     4.5850     5.8280 hc         1 SDK       0.024450
     53 H13          5.5950     2.2920     4.8480 hc         1 SDK       0.033200
     54 H141         8.0400     2.4960     4.5810 hc         1 SDK       0.008950
     55 H142         8.1060     3.5870     5.9710 hc         1 SDK       0.008950
     56 H143         7.2680     4.0860     4.4950 hc         1 SDK       0.008950
     57 H151         5.6020     0.9870     6.9090 hc         1 SDK       0.008950
     58 H152         7.1510     0.7620     6.0850 hc         1 SDK       0.008950
     59 H153         7.0420     1.8410     7.4830 hc         1 SDK       0.008950
     60 HN8          4.7540     4.1790     9.1850 hn         1 SDK       0.203500
     61 H191         2.2170     5.1500    10.0050 h1         1 SDK       0.051700
     62 H192         3.0500     6.4630     9.1610 h1         1 SDK       0.051700
     63 HN2          2.8750     3.6460     5.1310 hn         1 SDK       0.191500
     64 H24          4.6840    12.4720    22.5610 ha         1 SDK       0.103500
     65 H25          5.8710    11.1400    20.8590 ha         1 SDK       0.106500
     66 H27          4.5370    13.8310    17.8230 ha         1 SDK       0.106500
     67 H28          3.3460    15.1600    19.5240 ha         1 SDK       0.103500
     68 H291         6.3160    12.2370    17.3880 h1         1 SDK       0.011700
     69 H292         6.8700    11.1240    18.6470 h1         1 SDK       0.011700
     70 H33          6.1700     8.1450    14.8670 h1         1 SDK       0.092700
     71 H341         5.7190     5.7190    15.1510 hc         1 SDK       0.024450
     72 H342         4.4390     6.1040    16.3100 hc         1 SDK       0.024450
     73 H35          6.1420     7.2960    17.7140 hc         1 SDK       0.033200
     74 H361         7.2420     5.2360    18.5370 hc         1 SDK       0.008950
     75 H362         5.5310     4.9510    18.1850 hc         1 SDK       0.008950
     76 H363         6.7720     4.3960    17.0530 hc         1 SDK       0.008950
     77 H371         7.7370     7.7790    15.8740 hc         1 SDK       0.008950
     78 H372         8.5260     6.9330    17.2120 hc         1 SDK       0.008950
     79 H373         8.0920     6.0510    15.7410 hc         1 SDK       0.008950
     80 HN4          5.3120     6.3630    13.0460 hn         1 SDK       0.203500
     81 H411         2.5440     6.4610    12.3690 h1         1 SDK       0.051700
     82 H412         3.3770     7.7740    11.5270 h1         1 SDK       0.051700
     83 HN           3.7800     8.7140    16.5660 hn         1 SDK       0.191500
     84 H23          3.4180    14.4800    21.8930 ha         1 SDK       0.102000
@<TRIPOS>BOND
     1     1     2 ar  
     2     1     6 ar  
     3     1    43 1   
     4     2     3 ar  
     5     2    44 1   
     6     3     4 ar  
     7     3    45 1   
     8     4     5 ar  
     9     4     7 1   
    10     5     6 ar  
    11     5    46 1   
    12     6    47 1   
    13     7     8 1   
    14     7    48 1   
    15     7    49 1   
    16     8     9 1   
    17     9    10 2   
    18     9    20 1   
    19    11    12 1   
    20    11    16 1   
    21    11    20 1   
    22    11    50 1   
    23    12    13 1   
    24    12    51 1   
    25    12    52 1   
    26    13    14 1   
    27    13    15 1   
    28    13    53 1   
    29    14    54 1   
    30    14    55 1   
    31    14    56 1   
    32    15    57 1   
    33    15    58 1   
    34    15    59 1   
    35    16    17 2   
    36    16    18 1   
    37    18    19 1   
    38    18    60 1   
    39    19    21 1   
    40    19    61 1   
    41    19    62 1   
    42    20    63 1   
    43    21    22 2   
    44    21    41 1   
    45    23    24 ar  
    46    23    28 ar  
    47    23    84 1   
    48    24    25 ar  
    49    24    64 1   
    50    25    26 ar  
    51    25    65 1   
    52    26    27 ar  
    53    26    29 1   
    54    27    28 ar  
    55    27    66 1   
    56    28    67 1   
    57    29    30 1   
    58    29    68 1   
    59    29    69 1   
    60    30    31 1   
    61    31    32 2   
    62    31    42 1   
    63    33    34 1   
    64    33    38 1   
    65    33    42 1   
    66    33    70 1   
    67    34    35 1   
    68    34    71 1   
    69    34    72 1   
    70    35    36 1   
    71    35    37 1   
    72    35    73 1   
    73    36    74 1   
    74    36    75 1   
    75    36    76 1   
    76    37    77 1   
    77    37    78 1   
    78    37    79 1   
    79    38    39 2   
    80    38    40 1   
    81    40    41 1   
    82    40    80 1   
    83    41    81 1   
    84    41    82 1   
    85    42    83 1   
@<TRIPOS>SUBSTRUCTURE
     1 SDK         1 TEMP              0 ****  ****    0 ROOT
