@<TRIPOS>MOLECULE
SDL
   42    44     1     0     0
SMALL
bcc


@<TRIPOS>ATOM
      1 O5           0.0000     0.0000     0.0000 o          1 SDL      -0.636500
      2 C5           1.2170     0.0000     0.0000 c          1 SDL       0.553500
      3 N1           1.9950     0.0000     1.1000 n          1 SDL       0.176000
      4 C10          1.5270     0.0010     2.4880 c3         1 SDL       0.069200
      5 C11          1.3660    -1.4200     2.9650 c2         1 SDL      -0.221200
      6 C12          1.9800    -1.8200     4.0500 c2         1 SDL      -0.090000
      7 C6           3.3290    -0.0020     0.6820 cc         1 SDL      -0.231600
      8 C9           3.3180    -0.0020    -0.7090 cd         1 SDL      -0.031800
      9 N4           4.4760    -0.0050    -1.3780 nd         1 SDL      -0.333300
     10 C8           5.6270     0.0010    -0.7430 cc         1 SDL      -0.065200
     11 N3           6.7910    -0.0030    -1.4690 nz         1 SDL       0.234400
     12 N2           5.6950     0.0110     0.6170 ns         1 SDL       0.033600
     13 C7           4.5610    -0.0020     1.3520 c          1 SDL       0.627700
     14 O4           4.6080    -0.0000     2.5720 o          1 SDL      -0.618500
     15 N            1.9940    -0.0070    -1.1000 n          1 SDL       0.104000
     16 C4           1.5140    -0.0100    -2.4830 c3         1 SDL       0.212500
     17 C3           0.6960    -1.2900    -2.7660 c3         1 SDL       0.119100
     18 O2           1.5060    -2.2660    -3.4240 oh         1 SDL      -0.556800
     19 C2          -0.4410    -0.8100    -3.6970 c3         1 SDL       0.146100
     20 O1          -0.3680    -1.4750    -4.9590 oh         1 SDL      -0.551800
     21 O3           0.5860     1.0760    -2.6960 os         1 SDL      -0.371600
     22 C1          -0.1760     0.7020    -3.8650 c3         1 SDL       0.160100
     23 C           -1.4960     1.4720    -3.9090 c3         1 SDL       0.224400
     24 O           -1.2350     2.8510    -4.1820 oh         1 SDL      -0.586800
     25 H1           2.2500     0.5120     3.1120 h1         1 SDL       0.063700
     26 H2           0.5740     0.5130     2.5470 h1         1 SDL       0.063700
     27 H3           0.7420    -2.1100     2.4100 ha         1 SDL       0.120000
     28 H4           2.6040    -1.1300     4.6050 ha         1 SDL       0.094500
     29 H5           1.8640    -2.8410     4.3920 ha         1 SDL       0.094500
     30 H7           7.3310    -0.8100    -1.2300 hn         1 SDL       0.213800
     31 H8           7.3160     0.8240    -1.2630 hn         1 SDL       0.213800
     32 H9           2.3440     0.0650    -3.1760 h2         1 SDL       0.057700
     33 H10          0.2870    -1.6860    -1.8450 h1         1 SDL       0.034700
     34 H11          1.4040    -3.1000    -2.9960 ho         1 SDL       0.395000
     35 H12         -1.4040    -0.9740    -3.2300 h1         1 SDL       0.027700
     36 H13         -1.1390    -2.0060    -5.0790 ho         1 SDL       0.397000
     37 H14          0.4030     0.8840    -4.7630 h1         1 SDL       0.050700
     38 H15         -1.9980     1.3820    -2.9540 h1         1 SDL       0.001700
     39 H16         -2.1270     1.0630    -4.6890 h1         1 SDL       0.001700
     40 H17         -2.0520     3.3130    -4.2720 ho         1 SDL       0.400000
     41 H6           6.5860     0.0160     1.0740 hn         1 SDL       0.189500
     42 H33          6.5740    -0.0240    -2.4460 hn         1 SDL       0.213800
@<TRIPOS>BOND
     1     1     2 2   
     2     2     3 1   
     3     2    15 1   
     4     3     4 1   
     5     3     7 1   
     6     4     5 1   
     7     4    25 1   
     8     4    26 1   
     9     5     6 2   
    10     5    27 1   
    11     6    28 1   
    12     6    29 1   
    13     7     8 2   
    14     7    13 1   
    15     8     9 1   
    16     8    15 1   
    17     9    10 2   
    18    10    11 1   
    19    10    12 1   
    20    11    30 1   
    21    11    31 1   
    22    11    42 1   
    23    12    13 1   
    24    12    41 1   
    25    13    14 2   
    26    15    16 1   
    27    16    17 1   
    28    16    21 1   
    29    16    32 1   
    30    17    18 1   
    31    17    19 1   
    32    17    33 1   
    33    18    34 1   
    34    19    20 1   
    35    19    22 1   
    36    19    35 1   
    37    20    36 1   
    38    21    22 1   
    39    22    23 1   
    40    22    37 1   
    41    23    24 1   
    42    23    38 1   
    43    23    39 1   
    44    24    40 1   
@<TRIPOS>SUBSTRUCTURE
     1 SDL         1 TEMP              0 ****  ****    0 ROOT
