@<TRIPOS>MOLECULE
molecule
   42    44     1     0     0
SMALL
bcc


@<TRIPOS>ATOM
      1 O5           0.0000     0.0000     0.0000 o          1 SDL      -0.586500
      2 C5           1.2170     0.0000     0.0000 c          1 SDL       0.793500
      3 N1           1.9950     0.0000     1.1000 n          1 SDL      -0.289000
      4 C10          1.5270     0.0010     2.4880 c3         1 SDL       0.148200
      5 C11          1.3660    -1.4200     2.9650 c2         1 SDL      -0.228200
      6 C12          1.9800    -1.8200     4.0500 c2         1 SDL      -0.165000
      7 C6           3.3290    -0.0020     0.6820 cc         1 SDL      -0.082600
      8 C9           3.3180    -0.0020    -0.7090 cc         1 SDL       0.203200
      9 N4           4.4760    -0.0050    -1.3780 nc         1 SDL      -0.542300
     10 C8           5.6270     0.0010    -0.7430 cd         1 SDL       0.422800
     11 N3           6.7910    -0.0030    -1.4690 nz         1 SDL      -0.721600
     12 N2           5.6950     0.0110     0.6170 ns         1 SDL      -0.449400
     13 C7           4.5610    -0.0020     1.3520 c          1 SDL       0.718700
     14 O4           4.6080    -0.0000     2.5720 o          1 SDL      -0.568500
     15 N            1.9940    -0.0070    -1.1000 n          1 SDL      -0.318000
     16 C4           1.5140    -0.0100    -2.4830 c3         1 SDL       0.311500
     17 C3           0.6960    -1.2900    -2.7660 c3         1 SDL       0.086100
     18 O2           1.5060    -2.2660    -3.4240 oh         1 SDL      -0.576800
     19 C2          -0.4410    -0.8100    -3.6970 c3         1 SDL       0.106100
     20 O1          -0.3680    -1.4750    -4.9590 oh         1 SDL      -0.571800
     21 O3           0.5860     1.0760    -2.6960 os         1 SDL      -0.383600
     22 C1          -0.1760     0.7020    -3.8650 c3         1 SDL       0.132100
     23 C           -1.4960     1.4720    -3.9090 c3         1 SDL       0.148400
     24 O           -1.2350     2.8510    -4.1820 oh         1 SDL      -0.600800
     25 H1           0.5740     0.5130     2.5470 h1         1 SDL       0.093700
     26 H2           2.2500     0.5120     3.1120 h1         1 SDL       0.093700
     27 H3           0.7420    -2.1100     2.4100 ha         1 SDL       0.141000
     28 H4           1.8630    -2.8410     4.3920 ha         1 SDL       0.127500
     29 H5           2.6040    -1.1300     4.6050 ha         1 SDL       0.127500
     30 H7           6.5740    -0.0200    -2.4460 hn         1 SDL       0.477467
     31 H8           7.3180     0.8220    -1.2590 hn         1 SDL       0.477467
     32 H9           2.3440     0.0650    -3.1760 h2         1 SDL       0.100700
     33 H10          0.2870    -1.6860    -1.8450 h1         1 SDL       0.070700
     34 H11          1.4040    -3.1000    -2.9960 ho         1 SDL       0.411000
     35 H12         -1.4040    -0.9740    -3.2300 h1         1 SDL       0.064700
     36 H13         -1.1390    -2.0060    -5.0790 ho         1 SDL       0.413000
     37 H14          0.4030     0.8840    -4.7630 h1         1 SDL       0.088700
     38 H15         -2.1270     1.0630    -4.6890 h1         1 SDL       0.040700
     39 H16         -1.9980     1.3820    -2.9540 h1         1 SDL       0.040700
     40 H17         -2.0520     3.3140    -4.2710 ho         1 SDL       0.414000
     41 H6           6.5860     0.0160     1.0740 hn         1 SDL       0.353500
     42 H33          7.3290    -0.8120    -1.2330 hn         1 SDL       0.477467
@<TRIPOS>BOND
     1    20    19 1
     2    19    17 1
     3    19    22 1
     4    18    17 1
     5    24    23 1
     6    23    22 1
     7    17    16 1
     8    22    21 1
     9    11    10 1
    10    16    21 1
    11    16    15 1
    12     9    10 2
    13     9     8 1
    14    10    12 1
    15     8    15 1
    16     8     7 2
    17    15     2 1
    18    12    13 1
    19     2     1 2
    20     2     3 1
    21     7    13 1
    22     7     3 1
    23    13    14 2
    24     3     4 1
    25     6     5 2
    26     5     4 1
    27     4    25 1
    28     4    26 1
    29     5    27 1
    30     6    28 1
    31     6    29 1
    32    11    30 1
    33    11    31 1
    34    16    32 1
    35    17    33 1
    36    18    34 1
    37    19    35 1
    38    20    36 1
    39    22    37 1
    40    23    38 1
    41    23    39 1
    42    24    40 1
    43    12    41 1
    44    42    11 1
@<TRIPOS>SUBSTRUCTURE
     1 SDL         1 TEMP              0 ****  ****    0 ROOT
