@<TRIPOS>MOLECULE
molecule
   34    36     1     0     0
SMALL
bcc


@<TRIPOS>ATOM
      1 O4           0.0000     0.0000     0.0000 oh         1 SDN      -0.491100
      2 C11          1.3570     0.0000     0.0000 ca         1 SDN       0.171100
      3 C12          2.0630     0.0000     1.2100 ca         1 SDN      -0.182600
      4 C13          1.3570     0.0400     2.5010 c          1 SDN       0.622900
      5 O5           0.1960     0.4060     2.5890 o          1 SDN      -0.572100
      6 C14          2.1260    -0.3850     3.6780 cc         1 SDN      -0.388200
      7 C15          1.5300    -0.8630     4.8210 c2         1 SDN       0.260900
      8 O3           2.2460    -1.2940     5.8590 os         1 SDN      -0.257900
      9 C16          0.0260    -0.9000     4.9010 c3         1 SDN      -0.057900
     10 C10          2.0540    -0.0070    -1.1960 ca         1 SDN      -0.232000
     11 C9           3.4410    -0.0140    -1.2010 ca         1 SDN      -0.088000
     12 C8           4.1530    -0.0220    -0.0220 ca         1 SDN      -0.171000
     13 C7           3.4760    -0.0260     1.2030 ca         1 SDN       0.045200
     14 C6           4.2220    -0.0670     2.4600 cc         1 SDN      -0.201200
     15 C5           3.5920    -0.2750     3.6270 cd         1 SDN       0.019800
     16 C4           4.3350    -0.3840     4.9380 c3         1 SDN      -0.091200
     17 C3           3.6700    -1.5000     5.7570 c3         1 SDN       0.172100
     18 C2           4.2720    -1.5150     7.1640 c3         1 SDN      -0.189400
     19 C1           3.7170    -2.6830     7.9360 c          1 SDN       0.890600
     20 O2           2.9200    -3.4270     7.4150 o          1 SDN      -0.841800
     21 O1           4.1060    -2.8970     9.2030 o          1 SDN      -0.841800
     22 HO4         -0.3140     0.7020    -0.5460 ho         1 SDN       0.414000
     23 H161        -0.3640    -1.5030     4.0900 hc         1 SDN       0.070033
     24 H162        -0.2740    -1.3310     5.8480 hc         1 SDN       0.070033
     25 H163        -0.3650     0.1070     4.8220 hc         1 SDN       0.070033
     26 H10          1.5120    -0.0010    -2.1340 ha         1 SDN       0.124000
     27 H9           3.9720    -0.0200    -2.1450 ha         1 SDN       0.118000
     28 H8           5.2360    -0.0270    -0.0430 ha         1 SDN       0.128000
     29 H6           5.2970     0.0720     2.4500 ha         1 SDN       0.126000
     30 H41          4.2680     0.5540     5.4750 hc         1 SDN       0.061200
     31 H42          5.3720    -0.6340     4.7510 hc         1 SDN       0.061200
     32 H3           3.8570    -2.4520     5.2750 h1         1 SDN       0.078700
     33 H21          5.3490    -1.6070     7.0950 hc         1 SDN       0.048700
     34 H22          4.0210    -0.5930     7.6740 hc         1 SDN       0.048700
@<TRIPOS>BOND
     1    11    10 ar
     2    11    12 ar
     3    10     2 ar
     4    12    13 ar
     5     2     1 1
     6     2     3 ar
     7    13     3 ar
     8    13    14 1
     9     3     4 1
    10    14    15 2
    11     4     5 2
    12     4     6 1
    13    15     6 1
    14    15    16 1
    15     6     7 2
    16    16    17 1
    17     7     9 1
    18     7     8 1
    19    17     8 1
    20    17    18 1
    21    18    19 1
    22    19    20 1
    23    19    21 1
    24     1    22 1
    25     9    23 1
    26     9    24 1
    27     9    25 1
    28    10    26 1
    29    11    27 1
    30    12    28 1
    31    14    29 1
    32    16    30 1
    33    16    31 1
    34    17    32 1
    35    18    33 1
    36    18    34 1
@<TRIPOS>SUBSTRUCTURE
     1 SDN         1 TEMP              0 ****  ****    0 ROOT
