@<TRIPOS>MOLECULE
SDN
   34    36     1     0     0
SMALL
bcc


@<TRIPOS>ATOM
      1 O4          0.1130    0.4000   -0.0690 oh        1 SDN     -0.460100
      2 C11         1.4700    0.1950   -0.0520 ca        1 SDN      0.179100
      3 C12         2.0750   -0.0660    1.2000 ca        1 SDN     -0.192600
      4 C13         1.2720   -0.1130    2.4380 c         1 SDN      0.608900
      5 O5          0.0490    0.1270    2.4200 o         1 SDN     -0.592100
      6 C14         1.9780   -0.4650    3.6720 cc        1 SDN     -0.338200
      7 C15         1.2980   -0.6320    4.8600 c2        1 SDN      0.249900
      8 O3          1.8740   -1.0480    6.0100 os        1 SDN     -0.332900
      9 C16        -0.1520   -0.3640    5.0430 c3        1 SDN     -0.077900
     10 C10         2.2260    0.2390   -1.2300 ca        1 SDN     -0.269000
     11 C9          3.6040    0.0230   -1.1690 ca        1 SDN     -0.070000
     12 C8          4.2210   -0.2330    0.0450 ca        1 SDN     -0.191000
     13 C7          3.4680   -0.2800    1.2350 ca        1 SDN      0.060200
     14 C6          4.1210   -0.5420    2.4910 cd        1 SDN     -0.201200
     15 C5          3.4160   -0.6270    3.6460 cc        1 SDN      0.036800
     16 C4          4.0940   -0.8260    4.9540 c3        1 SDN     -0.097200
     17 C3          3.2280   -1.5940    5.9330 c3        1 SDN      0.170100
     18 C2          3.7670   -1.5550    7.3470 c3        1 SDN     -0.211400
     19 C1          5.0260   -2.4360    7.5060 c         1 SDN      0.916600
     20 O2          5.6580   -2.7920    6.4710 o         1 SDN     -0.837300
     21 O1          5.3560   -2.7400    8.6840 o         1 SDN     -0.837300
     22 HO4        -0.1490    0.5550   -0.9890 ho        1 SDN      0.401000
     23 H161       -0.3730    0.6940    4.7520 hc        1 SDN      0.070700
     24 H162       -0.4640   -0.5410    6.1010 hc        1 SDN      0.070700
     25 H163       -0.7360   -1.0310    4.3580 hc        1 SDN      0.070700
     26 H10         1.7370    0.4410   -2.1920 ha        1 SDN      0.122000
     27 H9          4.1970    0.0570   -2.0940 ha        1 SDN      0.120000
     28 H8          5.3060   -0.4040    0.0920 ha        1 SDN      0.133000
     29 H6          5.2130   -0.6710    2.4850 ha        1 SDN      0.139000
     30 H41         5.0560   -1.4080    4.8530 hc        1 SDN      0.098200
     31 H42         4.3520    0.1830    5.3770 hc        1 SDN      0.098200
     32 H3          3.1100   -2.6600    5.5880 h1        1 SDN      0.074700
     33 H21         4.0320   -0.5070    7.6340 hc        1 SDN      0.044200
     34 H22         2.9830   -1.9190    8.0570 hc        1 SDN      0.044200
@<TRIPOS>BOND
     1    1    2 1   
     2    1   22 1   
     3    2    3 ar  
     4    2   10 ar  
     5    3    4 1   
     6    3   13 ar  
     7    4    5 2   
     8    4    6 1   
     9    6    7 2   
    10    6   15 1   
    11    7    8 1   
    12    7    9 1   
    13    8   17 1   
    14    9   23 1   
    15    9   24 1   
    16    9   25 1   
    17   10   11 ar  
    18   10   26 1   
    19   11   12 ar  
    20   11   27 1   
    21   12   13 ar  
    22   12   28 1   
    23   13   14 1   
    24   14   15 2   
    25   14   29 1   
    26   15   16 1   
    27   16   17 1   
    28   16   30 1   
    29   16   31 1   
    30   17   18 1   
    31   17   32 1   
    32   18   19 1   
    33   18   33 1   
    34   18   34 1   
    35   19   20 1   
    36   19   21 1   
@<TRIPOS>SUBSTRUCTURE
     1 SDN         1 TEMP              0 ****  ****    0 ROOT
