@<TRIPOS>MOLECULE
SDO
   66    65     1     0     0
SMALL
bcc


@<TRIPOS>ATOM
      1 P24          0.0000     0.0000     0.0000 p3         1 SDO       0.472300
      2 O26          1.6090     0.0000     0.0000 oh         1 SDO      -0.583100
      3 O23         -0.3360     0.0000     1.5740 oh         1 SDO      -0.583100
      4 O27         -0.3350     1.5190    -0.4140 os         1 SDO      -0.412900
      5 C28         -0.4920     1.9410    -1.7700 c3         1 SDO       0.301400
      6 C29         -0.8030     3.4380    -1.8060 c3         1 SDO      -0.086000
      7 C30         -2.0960     3.7100    -1.0360 c3         1 SDO       0.007900
      8 C31          0.3480     4.2140    -1.1610 c3         1 SDO       0.007900
      9 C32         -0.9710     3.8890    -3.2590 c3         1 SDO       0.133100
     10 O33         -2.1240     3.2610    -3.8230 oh         1 SDO      -0.554800
     11 C34          0.2510     3.5000    -4.0500 c          1 SDO       0.542100
     12 O35          0.1890     2.5960    -4.8570 o          1 SDO      -0.622100
     13 N36          1.4130     4.1560    -3.8620 ns         1 SDO      -0.227900
     14 C37          2.5700     3.8540    -4.7090 c3         1 SDO       0.066000
     15 C38          3.7520     4.7310    -4.2900 c3         1 SDO      -0.111400
     16 C39          4.9410     4.4210    -5.1620 c          1 SDO       0.577100
     17 O40          4.8530     3.5810    -6.0320 o          1 SDO      -0.631100
     18 N41          6.1040     5.0780    -4.9740 ns         1 SDO      -0.206900
     19 C42          7.2600     4.7760    -5.8200 c3         1 SDO       0.071000
     20 C43          8.4420     5.6530    -5.4020 c3         1 SDO       0.067700
     21 S1           9.8730     5.2800    -6.4500 ss         1 SDO      -0.394200
     22 C1          11.1500     6.3990    -5.8120 c3         1 SDO       0.093700
     23 C2          12.4430     6.2040    -6.6050 c3         1 SDO      -0.103400
     24 C3          13.5040     7.1350    -6.0760 c          1 SDO       0.601100
     25 O3          13.2510     7.8770    -5.1570 o          1 SDO      -0.550100
     26 C4          14.8800     7.1380    -6.6900 c3         1 SDO      -0.122400
     27 C5          15.7570     8.1650    -5.9720 c3         1 SDO      -0.013400
     28 C6          17.1540     8.1690    -6.5970 c3         1 SDO      -0.125400
     29 C7          18.0170     9.1810    -5.8900 c          1 SDO       0.598100
     30 O7          17.5630     9.8320    -4.9800 o          1 SDO      -0.548100
     31 C8          19.4480     9.3800    -6.3180 c3         1 SDO      -0.091100
     32 H1           1.9240    -0.8890    -0.0080 ho         1 SDO       0.422000
     33 H2          -0.7870    -0.7970     1.7990 ho         1 SDO       0.422000
     34 H28A        -1.3050     1.3910    -2.2280 h1         1 SDO       0.000200
     35 H28B         0.4250     1.7490    -2.3160 h1         1 SDO       0.000200
     36 H30A        -2.8640     3.0210    -1.3660 hc         1 SDO       0.010200
     37 H30B        -2.4200     4.7270    -1.2210 hc         1 SDO       0.010200
     38 H30C        -1.9200     3.5740     0.0240 hc         1 SDO       0.010200
     39 H31A         1.2840     3.7130    -1.3730 hc         1 SDO       0.010200
     40 H31B         0.3760     5.2190    -1.5630 hc         1 SDO       0.010200
     41 H31C         0.1970     4.2580    -0.0890 hc         1 SDO       0.010200
     42 H32A        -1.0940     4.9650    -3.2910 h1         1 SDO       0.007700
     43 H33A        -2.5260     3.8430    -4.4470 ho         1 SDO       0.390000
     44 H36A         1.4720     4.8820    -3.1760 hn         1 SDO       0.184500
     45 H37A         2.8370     2.8110    -4.5960 h1         1 SDO       0.042200
     46 H37B         2.3210     4.0530    -5.7440 h1         1 SDO       0.042200
     47 H38A         3.4850     5.7750    -4.4020 hc         1 SDO       0.028700
     48 H38B         4.0010     4.5320    -3.2550 hc         1 SDO       0.028700
     49 H41A         6.1750     5.7750    -4.2590 hn         1 SDO       0.172500
     50 H42A         7.5280     3.7320    -5.7080 h1         1 SDO       0.041200
     51 H42B         7.0120     4.9760    -6.8560 h1         1 SDO       0.041200
     52 H43A         8.6900     5.4530    -4.3660 h1         1 SDO       0.036200
     53 H43B         8.1740     6.6970    -5.5140 h1         1 SDO       0.036200
     54 H1A         11.3320     6.1810    -4.7660 h1         1 SDO       0.046700
     55 H1B         10.8150     7.4240    -5.9140 h1         1 SDO       0.046700
     56 H2A         12.7790     5.1790    -6.5030 hc         1 SDO       0.047700
     57 H2B         12.2620     6.4220    -7.6510 hc         1 SDO       0.047700
     58 H4A         14.8060     7.3970    -7.7390 hc         1 SDO       0.033700
     59 H4B         15.3220     6.1540    -6.5910 hc         1 SDO       0.033700
     60 H5A         15.3140     9.1490    -6.0700 hc         1 SDO       0.039700
     61 H5B         15.8310     7.9050    -4.9230 hc         1 SDO       0.039700
     62 H6A         17.0790     8.4280    -7.6460 hc         1 SDO       0.031700
     63 H6B         17.5960     7.1850    -6.4980 hc         1 SDO       0.031700
     64 H8A         19.8960    10.1700    -5.7280 hc         1 SDO       0.024367
     65 H8B         20.0010     8.4600    -6.1670 hc         1 SDO       0.024367
     66 H8C         19.4780     9.6510    -7.3660 hc         1 SDO       0.024367
@<TRIPOS>BOND
     1     1     2 1   
     2     1     3 1   
     3     1     4 1   
     4     2    32 1   
     5     3    33 1   
     6     4     5 1   
     7     5     6 1   
     8     5    34 1   
     9     5    35 1   
    10     6     7 1   
    11     6     8 1   
    12     6     9 1   
    13     7    36 1   
    14     7    37 1   
    15     7    38 1   
    16     8    39 1   
    17     8    40 1   
    18     8    41 1   
    19     9    10 1   
    20     9    11 1   
    21     9    42 1   
    22    10    43 1   
    23    11    12 2   
    24    11    13 1   
    25    13    14 1   
    26    13    44 1   
    27    14    15 1   
    28    14    45 1   
    29    14    46 1   
    30    15    16 1   
    31    15    47 1   
    32    15    48 1   
    33    16    17 2   
    34    16    18 1   
    35    18    19 1   
    36    18    49 1   
    37    19    20 1   
    38    19    50 1   
    39    19    51 1   
    40    20    21 1   
    41    20    52 1   
    42    20    53 1   
    43    21    22 1   
    44    22    23 1   
    45    22    54 1   
    46    22    55 1   
    47    23    24 1   
    48    23    56 1   
    49    23    57 1   
    50    24    25 2   
    51    24    26 1   
    52    26    27 1   
    53    26    58 1   
    54    26    59 1   
    55    27    28 1   
    56    27    60 1   
    57    27    61 1   
    58    28    29 1   
    59    28    62 1   
    60    28    63 1   
    61    29    30 2   
    62    29    31 1   
    63    31    64 1   
    64    31    65 1   
    65    31    66 1   
@<TRIPOS>SUBSTRUCTURE
     1 SDO         1 TEMP              0 ****  ****    0 ROOT
