@<TRIPOS>MOLECULE
molecule
   66    65     1     0     0
SMALL
bcc


@<TRIPOS>ATOM
      1 P24          0.0000     0.0000     0.0000 p3         1 SDO       0.249300
      2 O26          1.6090     0.0000     0.0000 oh         1 SDO      -0.515100
      3 O23         -0.3360     0.0000     1.5740 oh         1 SDO      -0.515100
      4 O27         -0.3350     1.5190    -0.4140 os         1 SDO      -0.354900
      5 C28         -0.4920     1.9410    -1.7700 c3         1 SDO       0.200400
      6 C29         -0.8030     3.4380    -1.8060 c3         1 SDO      -0.058000
      7 C30         -2.0960     3.7100    -1.0360 c3         1 SDO      -0.081100
      8 C31          0.3480     4.2140    -1.1610 c3         1 SDO      -0.081100
      9 C32         -0.9710     3.8890    -3.2590 c3         1 SDO       0.085100
     10 O33         -2.1240     3.2610    -3.8230 oh         1 SDO      -0.572800
     11 C34          0.2510     3.5000    -4.0500 c          1 SDO       0.627100
     12 O35          0.1890     2.5960    -4.8570 o          1 SDO      -0.581100
     13 N36          1.4130     4.1560    -3.8620 ns         1 SDO      -0.598900
     14 C37          2.5700     3.8540    -4.7090 c3         1 SDO       0.126000
     15 C38          3.7520     4.7310    -4.2900 c3         1 SDO      -0.178400
     16 C39          4.9410     4.4210    -5.1620 c          1 SDO       0.662100
     17 O40          4.8530     3.5810    -6.0320 o          1 SDO      -0.595100
     18 N41          6.1040     5.0780    -4.9740 ns         1 SDO      -0.590900
     19 C42          7.2600     4.7760    -5.8200 c3         1 SDO       0.128000
     20 C43          8.4420     5.6530    -5.4020 c3         1 SDO      -0.007300
     21 S1           9.8730     5.2800    -6.4500 ss         1 SDO      -0.343200
     22 C1          11.1500     6.3990    -5.8120 c3         1 SDO       0.025700
     23 C2          12.4430     6.2040    -6.6050 c3         1 SDO      -0.169400
     24 C3          13.5040     7.1350    -6.0760 c          1 SDO       0.563100
     25 O3          13.2510     7.8770    -5.1570 o          1 SDO      -0.518100
     26 C4          14.8800     7.1380    -6.6900 c3         1 SDO      -0.183400
     27 C5          15.7570     8.1650    -5.9720 c3         1 SDO      -0.063400
     28 C6          17.1540     8.1690    -6.5970 c3         1 SDO      -0.186400
     29 C7          18.0170     9.1810    -5.8900 c          1 SDO       0.560100
     30 O7          17.5630     9.8320    -4.9800 o          1 SDO      -0.518100
     31 C8          19.4480     9.3800    -6.3180 c3         1 SDO      -0.196100
     32 H1           1.9240    -0.8890    -0.0080 ho         1 SDO       0.426500
     33 H2          -0.7870    -0.7970     1.7990 ho         1 SDO       0.426500
     34 H28A        -1.3050     1.3910    -2.2280 h1         1 SDO       0.044700
     35 H28B         0.4250     1.7490    -2.3160 h1         1 SDO       0.044700
     36 H30A        -2.8640     3.0210    -1.3660 hc         1 SDO       0.042700
     37 H30B        -2.4200     4.7270    -1.2210 hc         1 SDO       0.042700
     38 H30C        -1.9200     3.5740     0.0240 hc         1 SDO       0.042700
     39 H31A         1.2840     3.7130    -1.3730 hc         1 SDO       0.042700
     40 H31B         0.3760     5.2190    -1.5630 hc         1 SDO       0.042700
     41 H31C         0.1970     4.2580    -0.0890 hc         1 SDO       0.042700
     42 H32A        -1.0940     4.9650    -3.2910 h1         1 SDO       0.045700
     43 H33A        -2.5260     3.8430    -4.4470 ho         1 SDO       0.408000
     44 H36A         1.4720     4.8820    -3.1760 hn         1 SDO       0.313500
     45 H37A         2.8370     2.8110    -4.5960 h1         1 SDO       0.071700
     46 H37B         2.3210     4.0530    -5.7440 h1         1 SDO       0.071700
     47 H38A         3.4850     5.7750    -4.4020 hc         1 SDO       0.062700
     48 H38B         4.0010     4.5320    -3.2550 hc         1 SDO       0.062700
     49 H41A         6.1750     5.7750    -4.2590 hn         1 SDO       0.312500
     50 H42A         7.5280     3.7320    -5.7080 h1         1 SDO       0.068200
     51 H42B         7.0120     4.9760    -6.8560 h1         1 SDO       0.068200
     52 H43A         8.6900     5.4530    -4.3660 h1         1 SDO       0.061200
     53 H43B         8.1740     6.6970    -5.5140 h1         1 SDO       0.061200
     54 H1A         11.3320     6.1810    -4.7660 h1         1 SDO       0.071200
     55 H1B         10.8150     7.4240    -5.9140 h1         1 SDO       0.071200
     56 H2A         12.7790     5.1790    -6.5030 hc         1 SDO       0.077700
     57 H2B         12.2620     6.4220    -7.6510 hc         1 SDO       0.077700
     58 H4A         14.8060     7.3970    -7.7390 hc         1 SDO       0.064700
     59 H4B         15.3220     6.1540    -6.5910 hc         1 SDO       0.064700
     60 H5A         15.3140     9.1490    -6.0700 hc         1 SDO       0.068700
     61 H5B         15.8310     7.9050    -4.9230 hc         1 SDO       0.068700
     62 H6A         17.0790     8.4280    -7.6460 hc         1 SDO       0.062700
     63 H6B         17.5960     7.1850    -6.4980 hc         1 SDO       0.062700
     64 H8A         19.8960    10.1700    -5.7280 hc         1 SDO       0.061033
     65 H8B         20.0010     8.4600    -6.1670 hc         1 SDO       0.061033
     66 H8C         19.4780     9.6510    -7.3660 hc         1 SDO       0.061033
@<TRIPOS>BOND
     1     1     2 1
     2     1     3 1
     3     1     4 1
     4     4     5 1
     5     5     6 1
     6     6     7 1
     7     6     8 1
     8     6     9 1
     9     9    10 1
    10     9    11 1
    11    11    12 2
    12    11    13 1
    13    13    14 1
    14    14    15 1
    15    15    16 1
    16    16    17 2
    17    16    18 1
    18    18    19 1
    19    19    20 1
    20    20    21 1
    21    21    22 1
    22    22    23 1
    23    23    24 1
    24    24    25 2
    25    24    26 1
    26    26    27 1
    27    27    28 1
    28    28    29 1
    29    29    30 2
    30    29    31 1
    31     2    32 1
    32     3    33 1
    33     5    34 1
    34     5    35 1
    35     7    36 1
    36     7    37 1
    37     7    38 1
    38     8    39 1
    39     8    40 1
    40     8    41 1
    41     9    42 1
    42    10    43 1
    43    13    44 1
    44    14    45 1
    45    14    46 1
    46    15    47 1
    47    15    48 1
    48    18    49 1
    49    19    50 1
    50    19    51 1
    51    20    52 1
    52    20    53 1
    53    22    54 1
    54    22    55 1
    55    23    56 1
    56    23    57 1
    57    26    58 1
    58    26    59 1
    59    27    60 1
    60    27    61 1
    61    28    62 1
    62    28    63 1
    63    31    64 1
    64    31    65 1
    65    31    66 1
@<TRIPOS>SUBSTRUCTURE
     1 SDO         1 TEMP              0 ****  ****    0 ROOT
