@<TRIPOS>MOLECULE
SDS
   42    41     1     0     0
SMALL
bcc


@<TRIPOS>ATOM
      1 S           0.2340    0.2230   -0.1190 s6        1 SDS      1.698300
      2 O1S         1.4860    0.6840    0.2740 o         1 SDS     -0.755867
      3 O2S        -0.4940   -0.1360    1.4120 os        1 SDS     -0.609500
      4 O3S        -0.6440    1.1750   -0.6400 o         1 SDS     -0.755867
      5 O4          0.2010   -1.0190   -0.7550 o         1 SDS     -0.755867
      6 C1         -1.8080   -0.5850    1.4520 c3        1 SDS      0.208400
      7 C2        -11.7180   -3.4770   10.5760 c3        1 SDS     -0.092100
      8 C3        -11.2490   -3.4140    9.1450 c3        1 SDS     -0.080400
      9 C4         -9.8250   -2.9100    9.0470 c3        1 SDS     -0.079400
     10 C5         -9.3590   -2.8470    7.6090 c3        1 SDS     -0.079400
     11 C6         -7.9350   -2.3450    7.5120 c3        1 SDS     -0.078400
     12 C7         -7.4700   -2.2800    6.0730 c3        1 SDS     -0.079400
     13 C8         -6.0450   -1.7800    5.9760 c3        1 SDS     -0.078400
     14 C9         -5.5800   -1.7140    4.5370 c3        1 SDS     -0.079400
     15 C10        -4.1540   -1.2160    4.4400 c3        1 SDS     -0.078400
     16 C11        -3.6890   -1.1470    3.0010 c3        1 SDS     -0.078400
     17 C12        -2.2630   -0.6520    2.9050 c3        1 SDS     -0.089400
     18 H1C1       -1.8750   -1.6080    0.9840 h1        1 SDS      0.009200
     19 H1C2       -2.4740    0.1170    0.8740 h1        1 SDS      0.009200
     20 H2C1      -11.6800   -2.4650   11.0480 hc        1 SDS      0.030700
     21 H2C2      -12.7690   -3.8500   10.6250 hc        1 SDS      0.030700
     22 H2C3      -11.0700   -4.1640   11.1720 hc        1 SDS      0.030700
     23 H3C1      -11.3170   -4.4330    8.6810 hc        1 SDS      0.037700
     24 H3C2      -11.9250   -2.7380    8.5570 hc        1 SDS      0.037700
     25 H4C1       -9.7550   -1.8900    9.5100 hc        1 SDS      0.038700
     26 H4C2       -9.1470   -3.5860    9.6330 hc        1 SDS      0.038700
     27 H5C1       -9.4300   -3.8670    7.1450 hc        1 SDS      0.038700
     28 H5C2      -10.0370   -2.1710    7.0230 hc        1 SDS      0.038700
     29 H6C1       -7.2570   -3.0210    8.0960 hc        1 SDS      0.038200
     30 H6C2       -7.8640   -1.3250    7.9760 hc        1 SDS      0.038200
     31 H7C1       -8.1460   -1.6030    5.4890 hc        1 SDS      0.037700
     32 H7C2       -7.5420   -3.2990    5.6090 hc        1 SDS      0.037700
     33 H8C1       -5.3670   -2.4580    6.5590 hc        1 SDS      0.037700
     34 H8C2       -5.9710   -0.7610    6.4420 hc        1 SDS      0.037700
     35 H9C1       -6.2550   -1.0330    3.9550 hc        1 SDS      0.036700
     36 H9C2       -5.6540   -2.7310    4.0710 hc        1 SDS      0.036700
     37 H101       -3.4770   -1.8960    5.0210 hc        1 SDS      0.036200
     38 H102       -4.0780   -0.1980    4.9070 hc        1 SDS      0.036200
     39 H111       -4.3640   -0.4640    2.4210 hc        1 SDS      0.034200
     40 H112       -3.7660   -2.1640    2.5330 hc        1 SDS      0.034200
     41 H121       -2.1740    0.3670    3.3640 hc        1 SDS      0.041200
     42 H122       -1.5770   -1.3310    3.4730 hc        1 SDS      0.041200
@<TRIPOS>BOND
     1    1    2 1   
     2    1    3 1   
     3    1    4 1   
     4    1    5 1   
     5    3    6 1   
     6    6   17 1   
     7    6   18 1   
     8    6   19 1   
     9    7    8 1   
    10    7   20 1   
    11    7   21 1   
    12    7   22 1   
    13    8    9 1   
    14    8   23 1   
    15    8   24 1   
    16    9   10 1   
    17    9   25 1   
    18    9   26 1   
    19   10   11 1   
    20   10   27 1   
    21   10   28 1   
    22   11   12 1   
    23   11   29 1   
    24   11   30 1   
    25   12   13 1   
    26   12   31 1   
    27   12   32 1   
    28   13   14 1   
    29   13   33 1   
    30   13   34 1   
    31   14   15 1   
    32   14   35 1   
    33   14   36 1   
    34   15   16 1   
    35   15   37 1   
    36   15   38 1   
    37   16   17 1   
    38   16   39 1   
    39   16   40 1   
    40   17   41 1   
    41   17   42 1   
@<TRIPOS>SUBSTRUCTURE
     1 SDS         1 TEMP              0 ****  ****    0 ROOT
