@<TRIPOS>MOLECULE
molecule
   42    41     1     0     0
SMALL
bcc


@<TRIPOS>ATOM
      1 S            0.0000     0.0000     0.0000 s6         1 SDS       1.561300
      2 O1S          1.4200     0.0000     0.0000 o          1 SDS      -0.742533
      3 O2S         -0.4140     0.0000     1.4650 os         1 SDS      -0.587500
      4 O3S         -0.4130     1.3390    -0.5900 o          1 SDS      -0.742533
      5 O4          -0.8210    -0.9710    -0.6330 o          1 SDS      -0.742533
      6 C1          -1.7420    -0.5260     1.5190 c3         1 SDS       0.154400
      7 C2         -11.7210    -3.5010    10.5260 c3         1 SDS      -0.092100
      8 C3         -11.2430    -3.4740     9.0740 c3         1 SDS      -0.084400
      9 C4          -9.8210    -2.9120     9.0150 c3         1 SDS      -0.081400
     10 C5          -9.3420    -2.8840     7.5630 c3         1 SDS      -0.082400
     11 C6          -7.9210    -2.3220     7.5040 c3         1 SDS      -0.082400
     12 C7          -7.4410    -2.2940     6.0510 c3         1 SDS      -0.082400
     13 C8          -6.0210    -1.7320     5.9930 c3         1 SDS      -0.082400
     14 C9          -5.5410    -1.7050     4.5410 c3         1 SDS      -0.082400
     15 C10         -4.1200    -1.1430     4.4810 c3         1 SDS      -0.080400
     16 C11         -3.6420    -1.1150     3.0300 c3         1 SDS      -0.082400
     17 C12         -2.2200    -0.5530     2.9710 c3         1 SDS      -0.083400
     18 H1C1        -2.4030     0.1010     0.9330 h1         1 SDS       0.060200
     19 H1C2        -1.7480    -1.5320     1.1180 h1         1 SDS       0.060200
     20 H2C1       -11.0610    -4.1280    11.1120 hc         1 SDS       0.030700
     21 H2C2       -11.7140    -2.4950    10.9280 hc         1 SDS       0.030700
     22 H2C3       -12.7280    -3.8990    10.5670 hc         1 SDS       0.030700
     23 H3C1       -11.9040    -2.8470     8.4880 hc         1 SDS       0.039700
     24 H3C2       -11.2500    -4.4800     8.6720 hc         1 SDS       0.039700
     25 H4C1        -9.1610    -3.5390     9.6010 hc         1 SDS       0.040200
     26 H4C2        -9.8140    -1.9060     9.4160 hc         1 SDS       0.040200
     27 H5C1       -10.0030    -2.2570     6.9770 hc         1 SDS       0.040200
     28 H5C2        -9.3490    -3.8900     7.1620 hc         1 SDS       0.040200
     29 H6C1        -7.2610    -2.9490     8.0900 hc         1 SDS       0.039700
     30 H6C2        -7.9140    -1.3160     7.9050 hc         1 SDS       0.039700
     31 H7C1        -8.1020    -1.6670     5.4650 hc         1 SDS       0.040200
     32 H7C2        -7.4480    -3.3000     5.6500 hc         1 SDS       0.040200
     33 H8C1        -5.3600    -2.3590     6.5800 hc         1 SDS       0.039200
     34 H8C2        -6.0140    -0.7260     6.3950 hc         1 SDS       0.039200
     35 H9C1        -6.2020    -1.0780     3.9540 hc         1 SDS       0.040200
     36 H9C2        -5.5480    -2.7110     4.1390 hc         1 SDS       0.040200
     37 H101        -4.1130    -0.1360     4.8830 hc         1 SDS       0.038200
     38 H102        -3.4590    -1.7690     5.0670 hc         1 SDS       0.038200
     39 H111        -3.6490    -2.1210     2.6290 hc         1 SDS       0.041200
     40 H112        -4.3020    -0.4880     2.4440 hc         1 SDS       0.041200
     41 H121        -1.5590    -1.1800     3.5580 hc         1 SDS       0.043200
     42 H122        -2.2130     0.4530     3.3730 hc         1 SDS       0.043200
@<TRIPOS>BOND
     1     1     2 1
     2     1     3 1
     3     1     4 1
     4     1     5 1
     5     3     6 1
     6     6    17 1
     7     6    18 1
     8     6    19 1
     9     7     8 1
    10     7    20 1
    11     7    21 1
    12     7    22 1
    13     8     9 1
    14     8    23 1
    15     8    24 1
    16     9    10 1
    17     9    25 1
    18     9    26 1
    19    10    11 1
    20    10    27 1
    21    10    28 1
    22    11    12 1
    23    11    29 1
    24    11    30 1
    25    12    13 1
    26    12    31 1
    27    12    32 1
    28    13    14 1
    29    13    33 1
    30    13    34 1
    31    14    15 1
    32    14    35 1
    33    14    36 1
    34    15    16 1
    35    15    37 1
    36    15    38 1
    37    16    17 1
    38    16    39 1
    39    16    40 1
    40    17    41 1
    41    17    42 1
@<TRIPOS>SUBSTRUCTURE
     1 SDS         1 TEMP              0 ****  ****    0 ROOT
