@<TRIPOS>MOLECULE
molecule
   47    49     1     0     0
SMALL
bcc


@<TRIPOS>ATOM
      1 OAD          0.0000     0.0000     0.0000 o          1 SDT      -0.503100
      2 CAP          1.2080     0.0000     0.0000 c          1 SDT       0.591100
      3 CAI          2.1230     0.0000     1.2180 c3         1 SDT      -0.193400
      4 CAL          3.5770     0.0910     0.6830 c3         1 SDT      -0.074400
      5 CAV          3.3870     0.7300    -0.7010 c3         1 SDT      -0.059700
      6 CAW          2.1110    -0.0080    -1.2000 c3         1 SDT      -0.187000
      7 CAB          2.4590    -1.4500    -1.5730 c3         1 SDT      -0.081100
      8 CAN          1.5960     0.7200    -2.4270 c3         1 SDT      -0.052400
      9 CAJ          2.6340     0.5310    -3.5480 c3         1 SDT      -0.183400
     10 CAU          4.4930     0.4170    -1.7000 c3         1 SDT      -0.163700
     11 CAO          4.0090     0.9100    -3.0530 c          1 SDT       0.570100
     12 OAC          4.7230     1.6110    -3.7280 o          1 SDT      -0.528100
     13 CAM          5.7820     1.1350    -1.2990 c3         1 SDT      -0.059400
     14 CAK          6.9150     0.7130    -2.2370 c3         1 SDT      -0.038100
     15 CAT          8.1850     1.4220    -1.8410 ca         1 SDT      -0.083300
     16 CAS          9.0440     0.8420    -0.9220 ca         1 SDT       0.095100
     17 OAF          8.7420    -0.3660    -0.3750 oh         1 SDT      -0.505100
     18 CAR         10.2160     1.4990    -0.5580 ca         1 SDT       0.059100
     19 OAE         11.0620     0.9340     0.3440 oh         1 SDT      -0.508100
     20 CAH         10.5190     2.7290    -1.1180 ca         1 SDT      -0.157000
     21 CAG          9.6580     3.3020    -2.0360 ca         1 SDT      -0.124000
     22 CAQ          8.4970     2.6470    -2.4010 ca         1 SDT      -0.071300
     23 CAA          7.5640     3.2740    -3.4060 c3         1 SDT      -0.045800
     24 HAI          1.9050     0.8570     1.8440 hc         1 SDT       0.074200
     25 HAIA         1.9930    -0.9180     1.7780 hc         1 SDT       0.074200
     26 HAL          4.1800     0.7290     1.3180 hc         1 SDT       0.057200
     27 HALA         4.0140    -0.8960     0.5920 hc         1 SDT       0.057200
     28 HAV          3.2150     1.7970    -0.6230 hc         1 SDT       0.071700
     29 HAB          3.1930    -1.4490    -2.3710 hc         1 SDT       0.045367
     30 HABA         1.5650    -1.9620    -1.9060 hc         1 SDT       0.045367
     31 HABB         2.8670    -1.9590    -0.7080 hc         1 SDT       0.045367
     32 HAN          0.6460     0.2980    -2.7310 hc         1 SDT       0.059700
     33 HANA         1.4820     1.7750    -2.2060 hc         1 SDT       0.059700
     34 HAJ          2.6390    -0.5070    -3.8580 hc         1 SDT       0.072200
     35 HAJA         2.3710     1.1610    -4.3880 hc         1 SDT       0.072200
     36 HAU          4.6590    -0.6530    -1.7390 hc         1 SDT       0.082700
     37 HAM          5.6360     2.2060    -1.3680 hc         1 SDT       0.056200
     38 HAMA         6.0400     0.8710    -0.2800 hc         1 SDT       0.056200
     39 HAK          7.0620    -0.3580    -2.1670 hc         1 SDT       0.062200
     40 HAKA         6.6570     0.9770    -3.2560 hc         1 SDT       0.062200
     41 HOAF         9.3810    -1.0030    -0.6480 ho         1 SDT       0.416000
     42 HOAE        11.8800     0.7280    -0.0770 ho         1 SDT       0.412000
     43 HAH         11.4290     3.2430    -0.8350 ha         1 SDT       0.138000
     44 HAG          9.8980     4.2630    -2.4740 ha         1 SDT       0.135000
     45 HAA          8.0280     4.1580    -3.8260 hc         1 SDT       0.049367
     46 HAAA         7.3580     2.5640    -4.1980 hc         1 SDT       0.049367
     47 HAAB         6.6380     3.5490    -2.9170 hc         1 SDT       0.049367
@<TRIPOS>BOND
     1     1     2 2
     2     2     3 1
     3     2     6 1
     4     3     4 1
     5     4     5 1
     6     5     6 1
     7     5    10 1
     8     6     7 1
     9     6     8 1
    10     8     9 1
    11     9    11 1
    12    10    11 1
    13    10    13 1
    14    11    12 2
    15    13    14 1
    16    14    15 1
    17    15    16 ar
    18    15    22 ar
    19    16    17 1
    20    16    18 ar
    21    18    19 1
    22    18    20 ar
    23    20    21 ar
    24    21    22 ar
    25    22    23 1
    26     3    24 1
    27     3    25 1
    28     4    26 1
    29     4    27 1
    30     5    28 1
    31     7    29 1
    32     7    30 1
    33     7    31 1
    34     8    32 1
    35     8    33 1
    36     9    34 1
    37     9    35 1
    38    10    36 1
    39    13    37 1
    40    13    38 1
    41    14    39 1
    42    14    40 1
    43    17    41 1
    44    19    42 1
    45    20    43 1
    46    21    44 1
    47    23    45 1
    48    23    46 1
    49    23    47 1
@<TRIPOS>SUBSTRUCTURE
     1 SDT         1 TEMP              0 ****  ****    0 ROOT
