@<TRIPOS>MOLECULE
SDT
   47    49     1     0     0
SMALL
bcc


@<TRIPOS>ATOM
      1 OAD         0.0800   -0.2240    0.1980 o         1 SDT     -0.516100
      2 CAP         1.3020   -0.1860    0.0900 c         1 SDT      0.579100
      3 CAI         2.2940   -0.2180    1.2340 c3        1 SDT     -0.188400
      4 CAL         3.6760    0.0240    0.6230 c3        1 SDT     -0.072400
      5 CAV         3.3840    0.6020   -0.7590 c3        1 SDT     -0.059700
      6 CAW         2.0910   -0.1140   -1.2140 c3        1 SDT     -0.160000
      7 CAB         2.3080   -1.5540   -1.6610 c3        1 SDT     -0.084100
      8 CAN         1.4780    0.7060   -2.3330 c3        1 SDT     -0.052400
      9 CAJ         2.4600    0.8790   -3.4760 c3        1 SDT     -0.181400
     10 CAU         4.4470    0.5350   -1.8370 c3        1 SDT     -0.145700
     11 CAO         3.8770    1.2110   -3.0740 c         1 SDT      0.570100
     12 OAC         4.5490    1.9870   -3.7620 o         1 SDT     -0.538100
     13 CAM         5.7460    1.1810   -1.3800 c3        1 SDT     -0.065400
     14 CAK         6.9280    0.7000   -2.2040 c3        1 SDT     -0.031100
     15 CAT         8.1760    1.4190   -1.8260 ca        1 SDT     -0.078300
     16 CAS         8.9640    0.9250   -0.7700 ca        1 SDT      0.109100
     17 OAF         8.5270   -0.2070   -0.1180 oh        1 SDT     -0.501100
     18 CAR        10.1550    1.5850   -0.4020 ca        1 SDT      0.033100
     19 OAE        10.8630    1.0250    0.6450 oh        1 SDT     -0.521100
     20 CAH        10.5610    2.7360   -1.0790 ca        1 SDT     -0.168000
     21 CAG         9.7770    3.2240   -2.1200 ca        1 SDT     -0.132000
     22 CAQ         8.5930    2.5810   -2.4990 ca        1 SDT     -0.061300
     23 CAA         7.7970    3.1300   -3.6230 c3        1 SDT     -0.061800
     24 HAI         2.0340    0.5760    1.9780 hc        1 SDT      0.077700
     25 HAIA        2.2410   -1.2070    1.7530 hc        1 SDT      0.077700
     26 HAL         4.2520   -0.9310    0.5430 hc        1 SDT      0.056200
     27 HALA        4.2730    0.7350    1.2430 hc        1 SDT      0.056200
     28 HAV         3.1360    1.6940   -0.6090 hc        1 SDT      0.057700
     29 HAB         2.8910   -2.1170   -0.8930 hc        1 SDT      0.045033
     30 HABA        1.3180   -2.0530   -1.8020 hc        1 SDT      0.045033
     31 HABB        2.8640   -1.5950   -2.6280 hc        1 SDT      0.045033
     32 HAN         1.1730    1.7100   -1.9360 hc        1 SDT      0.058700
     33 HANA        0.5500    0.2020   -2.7110 hc        1 SDT      0.058700
     34 HAJ         2.5080   -0.0670   -4.0820 hc        1 SDT      0.072200
     35 HAJA        2.0840    1.6880   -4.1600 hc        1 SDT      0.072200
     36 HAU         4.6540   -0.5410   -2.1030 hc        1 SDT      0.078700
     37 HAM         5.6580    2.2960   -1.4630 hc        1 SDT      0.056700
     38 HAMA        5.9310    0.9270   -0.3030 hc        1 SDT      0.056700
     39 HAK         7.0730   -0.4020   -2.0370 hc        1 SDT      0.060200
     40 HAKA        6.7090    0.8550   -3.2950 hc        1 SDT      0.060200
     41 HOAF        9.2100   -0.4640    0.5200 ho        1 SDT      0.435000
     42 HOAE       11.6750    1.5380    0.7560 ho        1 SDT      0.428000
     43 HAH        11.4890    3.2480   -0.7900 ha        1 SDT      0.134000
     44 HAG        10.0950    4.1330   -2.6540 ha        1 SDT      0.136000
     45 HAA         7.9450    2.5020   -4.5380 hc        1 SDT      0.052700
     46 HAAA        8.1080    4.1770   -3.8620 hc        1 SDT      0.052700
     47 HAAB        6.7040    3.1310   -3.3800 hc        1 SDT      0.052700
@<TRIPOS>BOND
     1    1    2 2   
     2    2    3 1   
     3    2    6 1   
     4    3    4 1   
     5    3   24 1   
     6    3   25 1   
     7    4    5 1   
     8    4   26 1   
     9    4   27 1   
    10    5    6 1   
    11    5   10 1   
    12    5   28 1   
    13    6    7 1   
    14    6    8 1   
    15    7   29 1   
    16    7   30 1   
    17    7   31 1   
    18    8    9 1   
    19    8   32 1   
    20    8   33 1   
    21    9   11 1   
    22    9   34 1   
    23    9   35 1   
    24   10   11 1   
    25   10   13 1   
    26   10   36 1   
    27   11   12 2   
    28   13   14 1   
    29   13   37 1   
    30   13   38 1   
    31   14   15 1   
    32   14   39 1   
    33   14   40 1   
    34   15   16 ar  
    35   15   22 ar  
    36   16   17 1   
    37   16   18 ar  
    38   17   41 1   
    39   18   19 1   
    40   18   20 ar  
    41   19   42 1   
    42   20   21 ar  
    43   20   43 1   
    44   21   22 ar  
    45   21   44 1   
    46   22   23 1   
    47   23   45 1   
    48   23   46 1   
    49   23   47 1   
@<TRIPOS>SUBSTRUCTURE
     1 SDT         1 TEMP              0 ****  ****    0 ROOT
