@<TRIPOS>MOLECULE
SDZ
   62    65     1     0     0
SMALL
bcc


@<TRIPOS>ATOM
      1 N1         -1.5170   -1.6690   -0.1660 nb        1 SDZ     -0.711000
      2 C2         -0.6280   -2.6590    0.0010 ca        1 SDZ      0.421200
      3 C3          0.2520   -2.7590    1.0910 ca        1 SDZ     -0.275300
      4 C4          0.1900   -1.7670    2.0700 ca        1 SDZ     -0.077000
      5 C5         -0.7250   -0.7280    1.9390 ca        1 SDZ     -0.262300
      6 C6         -1.5840   -0.6960    0.7980 ca        1 SDZ      0.615200
      7 N2         -2.5710    0.3330    0.7260 nh        1 SDZ     -0.731300
      8 C7         -3.6100    0.1730   -0.2830 c3        1 SDZ      0.183300
      9 C8         -4.7110    1.2450   -0.1530 c3        1 SDZ      0.164800
     10 N3         -4.1910    2.6030   -0.1040 n3        1 SDZ     -0.732600
     11 C9         -2.0240    1.6850    0.7380 c3        1 SDZ      0.183300
     12 C10        -3.1260    2.7550    0.8770 c3        1 SDZ      0.164800
     13 C11        -5.2280    3.6080    0.0680 c3        1 SDZ      0.169800
     14 C12        -6.1400    3.7630   -1.1660 c3        1 SDZ      0.142100
     15 O1         -6.3180    5.1630   -1.3330 oh        1 SDZ     -0.602800
     16 C13        -7.4940    3.0870   -0.9190 c3        1 SDZ      0.085400
     17 O2         -8.1930    3.1870   -2.1640 os        1 SDZ     -0.343900
     18 C14        -9.4620    2.6380   -2.1920 ca        1 SDZ      0.123100
     19 C15       -10.1200    2.7380   -3.4320 ca        1 SDZ     -0.177500
     20 C16       -11.4010    2.2190   -3.5630 ca        1 SDZ     -0.093500
     21 C17       -12.0430    1.5990   -2.4820 ca        1 SDZ     -0.105300
     22 C18       -11.3740    1.5080   -1.2580 ca        1 SDZ     -0.093500
     23 C19       -10.0870    2.0230   -1.1020 ca        1 SDZ     -0.177500
     24 C20       -13.4220    1.0480   -2.6500 c3        1 SDZ     -0.016400
     25 C21       -13.4450   -0.4590   -2.4110 c3        1 SDZ     -0.071400
     26 C22       -14.8430   -1.0160   -2.5810 c3        1 SDZ     -0.077400
     27 C23       -15.8320   -0.3130   -1.6740 c3        1 SDZ     -0.077400
     28 C24       -15.8070    1.1860   -1.8920 c3        1 SDZ     -0.077400
     29 C25       -14.4100    1.7460   -1.7210 c3        1 SDZ     -0.071400
     30 H2         -0.6210   -3.4180   -0.8020 h4        1 SDZ      0.020100
     31 H3          0.9610   -3.5920    1.1640 ha        1 SDZ      0.144000
     32 H4          0.8560   -1.8050    2.9450 ha        1 SDZ      0.137000
     33 H5         -0.7950    0.0460    2.7150 ha        1 SDZ      0.146000
     34 H71        -4.0930   -0.8330   -0.1380 h1        1 SDZ      0.052450
     35 H72        -3.1870    0.2150   -1.3280 h1        1 SDZ      0.052450
     36 H81        -5.3660    1.1630   -1.0660 h1        1 SDZ      0.039200
     37 H82        -5.3440    1.0080    0.7520 h1        1 SDZ      0.039200
     38 H91        -1.4320    1.8930   -0.2000 h1        1 SDZ      0.052450
     39 H92        -1.3330    1.7920    1.6190 h1        1 SDZ      0.052450
     40 H101       -3.5240    2.7300    1.9330 h1        1 SDZ      0.039200
     41 H102       -2.6430    3.7590    0.7100 h1        1 SDZ      0.039200
     42 H111       -5.8720    3.3980    0.9720 h1        1 SDZ      0.050700
     43 H112       -4.7240    4.6040    0.2360 h1        1 SDZ      0.050700
     44 H12        -5.6700    3.3350   -2.0950 h1        1 SDZ      0.070700
     45 HO1        -6.9180    5.2750   -2.0810 ho        1 SDZ      0.417000
     46 H131       -7.3560    2.0100   -0.6410 h1        1 SDZ      0.051200
     47 H132       -8.0680    3.6260   -0.1210 h1        1 SDZ      0.051200
     48 H15        -9.6120    3.2240   -4.2770 ha        1 SDZ      0.141500
     49 H16       -11.9160    2.2960   -4.5330 ha        1 SDZ      0.134500
     50 H18       -11.8660    1.0240   -0.4000 ha        1 SDZ      0.134500
     51 H19        -9.5840    1.9390   -0.1290 ha        1 SDZ      0.141500
     52 H20       -13.7600    1.2320   -3.7110 hc        1 SDZ      0.051700
     53 H211      -13.0750   -0.6780   -1.3750 hc        1 SDZ      0.042700
     54 H212      -12.7490   -0.9610   -3.1320 hc        1 SDZ      0.042700
     55 H221      -14.8370   -2.1130   -2.3520 hc        1 SDZ      0.039700
     56 H222      -15.1660   -0.8970   -3.6490 hc        1 SDZ      0.039700
     57 H231      -15.5840   -0.5390   -0.6040 hc        1 SDZ      0.038700
     58 H232      -16.8650   -0.7040   -1.8700 hc        1 SDZ      0.038700
     59 H241      -16.1800    1.4200   -2.9240 hc        1 SDZ      0.039700
     60 H242      -16.4990    1.6830   -1.1640 hc        1 SDZ      0.039700
     61 H251      -14.4150    2.8450   -1.9410 hc        1 SDZ      0.042700
     62 H252      -14.0790    1.6150   -0.6580 hc        1 SDZ      0.042700
@<TRIPOS>BOND
     1    1    2 ar
     2    1    6 ar
     3    2    3 ar
     4    2   30 1
     5    3    4 ar
     6    3   31 1
     7    4    5 ar
     8    4   32 1
     9    5    6 ar
    10    5   33 1
    11    6    7 1
    12    7    8 1
    13    7   11 1
    14    8    9 1
    15    8   34 1
    16    8   35 1
    17    9   10 1
    18    9   36 1
    19    9   37 1
    20   10   12 1
    21   10   13 1
    22   11   12 1
    23   11   38 1
    24   11   39 1
    25   12   40 1
    26   12   41 1
    27   13   14 1
    28   13   42 1
    29   13   43 1
    30   14   15 1
    31   14   16 1
    32   14   44 1
    33   15   45 1
    34   16   17 1
    35   16   46 1
    36   16   47 1
    37   17   18 1
    38   18   19 ar
    39   18   23 ar
    40   19   20 ar
    41   19   48 1
    42   20   21 ar
    43   20   49 1
    44   21   22 ar
    45   21   24 1
    46   22   23 ar
    47   22   50 1
    48   23   51 1
    49   24   25 1
    50   24   29 1
    51   24   52 1
    52   25   26 1
    53   25   53 1
    54   25   54 1
    55   26   27 1
    56   26   55 1
    57   26   56 1
    58   27   28 1
    59   27   57 1
    60   27   58 1
    61   28   29 1
    62   28   59 1
    63   28   60 1
    64   29   61 1
    65   29   62 1
@<TRIPOS>SUBSTRUCTURE
     1 SDZ         1 TEMP              0 ****  ****    0 ROOT
