@<TRIPOS>MOLECULE
SE0
   51    52     1     0     0
SMALL
bcc


@<TRIPOS>ATOM
      1 N            0.0000     0.0000     0.0000 nz         1 SE0       0.089400
      2 CA           1.4690     0.0000     0.0000 c3         1 SE0      -0.204500
      3 C            1.9710     0.0000     1.4210 c          1 SE0       0.959600
      4 O            3.2240    -0.3980     1.6900 o          1 SE0      -0.825300
      5 CB           1.9800     1.2490    -0.7220 c3         1 SE0       0.217400
      6 OG           1.5950     1.1900    -2.1200 os         1 SE0      -0.421900
      7 OXT          1.2460     0.3590     2.3180 o          1 SE0      -0.825300
      8 S1           1.4820    -0.5050    -4.3510 ss         1 SE0      -0.522200
      9 C2           2.0460    -1.7640    -5.5450 c3         1 SE0       0.172900
     10 C3           1.5850    -1.3030    -6.9140 ce         1 SE0      -0.276800
     11 C3'          1.0760    -2.1730    -7.7800 c2         1 SE0      -0.122000
     12 C4           1.7100     0.1160    -7.2740 ce         1 SE0       0.441600
     13 C4'          1.5160     0.4640    -8.7070 c          1 SE0       0.874300
     14 O4A          1.4740     1.7560    -9.0850 o          1 SE0      -0.835800
     15 O4B          1.3960    -0.4150    -9.5340 o          1 SE0      -0.835800
     16 N5           1.9680     1.0770    -6.4760 n2         1 SE0      -0.490900
     17 C6           2.2180     1.0030    -5.0460 c3         1 SE0       0.249600
     18 C7           1.6050     2.2270    -4.3610 c3         1 SE0       0.004700
     19 C8           1.9680     2.2190    -2.8990 c          1 SE0       0.696100
     20 O9           2.5960     3.1370    -2.4260 o          1 SE0      -0.582000
     21 N10          2.1240     3.4460    -4.9860 ns         1 SE0      -0.198900
     22 C11          1.5390     3.9360    -6.0960 c          1 SE0       0.568100
     23 O12          0.5820     3.3660    -6.5790 o          1 SE0      -0.557100
     24 C13          2.0720     5.1910    -6.7390 c3         1 SE0      -0.063400
     25 C14          1.2340     5.5270    -7.9740 c3         1 SE0       0.055400
     26 C15          1.7680     6.8050    -8.6730 c3         1 SE0      -0.034400
     27 C16          1.2290     6.7860   -10.1140 c3         1 SE0      -0.024400
     28 C17          1.4630     5.3850   -10.7170 c3         1 SE0       0.041700
     29 S19          1.4510     4.2530    -9.2770 ss         1 SE0      -0.231200
     30 HN          -0.3340    -0.1930    -0.9240 hn         1 SE0       0.212467
     31 HNA         -0.3340    -0.7030     0.6290 hn         1 SE0       0.212467
     32 HA           1.8300    -0.8850    -0.5100 hx         1 SE0       0.103700
     33 HB           1.5480     2.1320    -0.2660 h1         1 SE0       0.045200
     34 HBA          3.0590     1.2940    -0.6460 h1         1 SE0       0.045200
     35 H2           1.6000    -2.7230    -5.3090 h1         1 SE0       0.038700
     36 H2A          3.1260    -1.8360    -5.5230 h1         1 SE0       0.038700
     37 H3'          0.7490    -1.8370    -8.7560 ha         1 SE0       0.120000
     38 H3'A         0.9870    -3.2180    -7.5080 ha         1 SE0       0.120000
     39 H6           3.2880     0.9890    -4.8730 h2         1 SE0       0.049700
     40 H7           0.5280     2.1980    -4.4660 h1         1 SE0       0.082700
     41 HN10         2.9130     3.9150    -4.5870 hn         1 SE0       0.183500
     42 H13          2.0170     6.0100    -6.0320 hc         1 SE0       0.024700
     43 H13A         3.1030     5.0360    -7.0320 hc         1 SE0       0.024700
     44 H14          0.1870     5.6390    -7.7200 h1         1 SE0       0.056700
     45 H15          2.8510     6.7940    -8.6840 hc         1 SE0       0.012700
     46 H15A         1.4060     7.6850    -8.1560 hc         1 SE0       0.012700
     47 H16          1.7520     7.5260   -10.7060 hc         1 SE0       0.007200
     48 H16A         0.1680     7.0030   -10.1060 hc         1 SE0       0.007200
     49 H17          0.6620     5.1320   -11.4010 h1         1 SE0       0.035200
     50 H17A         2.4220     5.3470   -11.2180 h1         1 SE0       0.035200
     51 HN3         -0.3340     0.8970     0.2930 hn         1 SE0       0.212467
@<TRIPOS>BOND
     1     1     2 1   
     2     1    30 1   
     3     1    31 1   
     4     1    51 1   
     5     2     3 1   
     6     2     5 1   
     7     2    32 1   
     8     3     4 1   
     9     3     7 1   
    10     5     6 1   
    11     5    33 1   
    12     5    34 1   
    13     6    19 1   
    14     8     9 1   
    15     8    17 1   
    16     9    10 1   
    17     9    35 1   
    18     9    36 1   
    19    10    11 2   
    20    10    12 1   
    21    11    37 1   
    22    11    38 1   
    23    12    13 1   
    24    12    16 2   
    25    13    14 1   
    26    13    15 1   
    27    16    17 1   
    28    17    18 1   
    29    17    39 1   
    30    18    19 1   
    31    18    21 1   
    32    18    40 1   
    33    19    20 2   
    34    21    22 1   
    35    21    41 1   
    36    22    23 2   
    37    22    24 1   
    38    24    25 1   
    39    24    42 1   
    40    24    43 1   
    41    25    26 1   
    42    25    29 1   
    43    25    44 1   
    44    26    27 1   
    45    26    45 1   
    46    26    46 1   
    47    27    28 1   
    48    27    47 1   
    49    27    48 1   
    50    28    29 1   
    51    28    49 1   
    52    28    50 1   
@<TRIPOS>SUBSTRUCTURE
     1 SE0         1 TEMP              0 ****  ****    0 ROOT
