@<TRIPOS>MOLECULE
SE2
   18    19     1     0     0
SMALL
bcc


@<TRIPOS>ATOM
      1 O8          0.2690   -0.8910    0.0450 o         1 SE2     -0.575500
      2 C8          1.3290   -0.2740   -0.0670 c         1 SE2      0.696800
      3 O1          1.7860    0.2280    1.1350 os        1 SE2     -0.300200
      4 C11         2.9730    0.9450    1.1430 ca        1 SE2      0.118100
      5 C10         3.3850    1.4290    2.3970 ca        1 SE2     -0.134000
      6 C1          4.5660    2.1550    2.4730 ca        1 SE2     -0.096000
      7 C2          5.3300    2.3990    1.3240 ca        1 SE2     -0.147000
      8 C3          4.9180    1.9190    0.0890 ca        1 SE2     -0.083000
      9 C4          3.7270    1.1800   -0.0230 ca        1 SE2     -0.111800
     10 C5          3.2560    0.6600   -1.2820 cc        1 SE2     -0.081200
     11 C7          2.0960   -0.0420   -1.2970 cd        1 SE2     -0.001100
     12 O11         1.6140   -0.5540   -2.4760 oh        1 SE2     -0.480100
     13 H10         2.7710    1.2260    3.2860 ha        1 SE2      0.160000
     14 H1          4.9050    2.5420    3.4460 ha        1 SE2      0.142000
     15 H2          6.2630    2.9760    1.4050 ha        1 SE2      0.141000
     16 H3          5.5180    2.1100   -0.8140 ha        1 SE2      0.142000
     17 H5          3.8390    0.8390   -2.1960 ha        1 SE2      0.166000
     18 H11         0.7820   -1.0190   -2.2800 ho        1 SE2      0.444000
@<TRIPOS>BOND
     1    1    2 2   
     2    2    3 1   
     3    2   11 1   
     4    3    4 1   
     5    4    5 ar  
     6    4    9 ar  
     7    5    6 ar  
     8    5   13 1   
     9    6    7 ar  
    10    6   14 1   
    11    7    8 ar  
    12    7   15 1   
    13    8    9 ar  
    14    8   16 1   
    15    9   10 1   
    16   10   11 2   
    17   10   17 1   
    18   11   12 1   
    19   12   18 1   
@<TRIPOS>SUBSTRUCTURE
     1 SE2         1 TEMP              0 ****  ****    0 ROOT
