@<TRIPOS>MOLECULE
molecule
   18    19     1     0     0
SMALL
bcc


@<TRIPOS>ATOM
      1 O8           0.0000     0.0000     0.0000 o          1 SE2      -0.529500
      2 C8           1.2170     0.0000     0.0000 c          1 SE2       0.717800
      3 O1           1.9090     0.0000     1.1610 os         1 SE2      -0.313200
      4 C11          2.9970     0.8050     1.2100 ca         1 SE2       0.146100
      5 C10          3.4370     1.3320     2.4170 ca         1 SE2      -0.138000
      6 C1           4.5510     2.1440     2.4430 ca         1 SE2      -0.088000
      7 C2           5.2390     2.4410     1.2750 ca         1 SE2      -0.150000
      8 C3           4.8210     1.9350     0.0770 ca         1 SE2      -0.075000
      9 C4           3.6930     1.1110     0.0280 ca         1 SE2      -0.139800
     10 C5           3.2170     0.5600    -1.2470 cc         1 SE2      -0.074200
     11 C7           1.9710    -0.0060    -1.2610 cd         1 SE2      -0.026100
     12 O11          1.4490    -0.5480    -2.3940 oh         1 SE2      -0.483100
     13 H10          2.9070     1.1060     3.3340 ha         1 SE2       0.154000
     14 H1           4.8940     2.5530     3.3860 ha         1 SE2       0.141000
     15 H2           6.1120     3.0800     1.3130 ha         1 SE2       0.138000
     16 H3           5.3630     2.1710    -0.8310 ha         1 SE2       0.140000
     17 H5           3.8310     0.5920    -2.1390 ha         1 SE2       0.157000
     18 H11          1.7180    -1.4490    -2.4640 ho         1 SE2       0.423000
@<TRIPOS>BOND
     1     1     2 2
     2     2     3 1
     3     2    11 1
     4     3     4 1
     5     4     5 ar
     6     4     9 ar
     7     5     6 ar
     8     6     7 ar
     9     7     8 ar
    10     8     9 ar
    11     9    10 1
    12    10    11 2
    13    11    12 1
    14     5    13 1
    15     6    14 1
    16     7    15 1
    17     8    16 1
    18    10    17 1
    19    12    18 1
@<TRIPOS>SUBSTRUCTURE
     1 SE2         1 TEMP              0 ****  ****    0 ROOT
