@<TRIPOS>MOLECULE
SE4
    5     4     1     0     0
SMALL
bcc


@<TRIPOS>ATOM
      1 SE         34.9640   14.5190   19.0010 s6        1 SE4      1.542800
      2 O1         36.1310   15.0820   19.6810 o         1 SE4     -0.885200
      3 O2         33.8610   15.4790   19.0490 o         1 SE4     -0.885200
      4 O3         34.5610   13.2800   19.6670 o         1 SE4     -0.885200
      5 O4         35.3020   14.2350   17.6060 o         1 SE4     -0.885200
@<TRIPOS>BOND
     1    1    2 1   
     2    1    3 1   
     3    1    4 1   
     4    1    5 1   
@<TRIPOS>SUBSTRUCTURE
     1 SE4         1 TEMP              0 ****  ****    0 ROOT
