@<TRIPOS>MOLECULE
molecule
    5     4     1     0     0
SMALL
bcc


@<TRIPOS>ATOM
      1 SE          34.9550    14.5020    18.9770 s6         1 SE4       1.298800
      2 O1          36.1820    15.0900    19.7150 o          1 SE4      -0.824700
      3 O2          33.7880    15.5320    19.0710 o          1 SE4      -0.824700
      4 O3          34.5550    13.2510    19.7070 o          1 SE4      -0.824700
      5 O4          35.3390    14.2190    17.5330 o          1 SE4      -0.824700
@<TRIPOS>BOND
     1     1     2 1
     2     1     3 1
     3     1     4 1
     4     1     5 1
@<TRIPOS>SUBSTRUCTURE
     1 SE4         1 TEMP              0 ****  ****    0 ROOT
