@<TRIPOS>MOLECULE
molecule
   28    29     1     0     0
SMALL
bcc


@<TRIPOS>ATOM
      1 O1           0.0000     0.0000     0.0000 o          1 SE5      -0.837300
      2 C1           1.3490     0.0000     0.0000 c          1 SE5       0.905200
      3 O2           1.9570     0.0000     1.0530 o          1 SE5      -0.837300
      4 C2           2.0800    -0.0010    -1.2690 cc         1 SE5      -0.115900
      5 C3           3.4530    -0.0020    -1.4200 cd         1 SE5      -0.201000
      6 C4           3.7120    -0.0020    -2.7940 cd         1 SE5      -0.200300
      7 C5           5.0720    -0.0020    -3.4400 c3         1 SE5       0.014900
      8 C6           5.5330    -1.4460    -3.6580 c3         1 SE5      -0.039100
      9 C7           6.8940    -1.4470    -4.3050 ca         1 SE5      -0.062300
     10 C8           7.0040    -1.4410    -5.6830 ca         1 SE5      -0.120500
     11 C9           8.0310    -1.4470    -3.5190 ca         1 SE5      -0.120500
     12 C10          9.2810    -1.4470    -4.1110 ca         1 SE5      -0.124000
     13 C11          9.3920    -1.4480    -5.4900 ca         1 SE5       0.014400
     14 C12          2.5220    -0.0020    -3.4410 cc         1 SE5      -0.206300
     15 Cl1         10.9610    -1.4480    -6.2350 cl         1 SE5      -0.136400
     16 C13          8.2530    -1.4370    -6.2760 ca         1 SE5      -0.124000
     17 N1           1.5260    -0.0070    -2.5290 na         1 SE5      -0.126100
     18 H2           4.1800     0.1670    -0.6350 ha         1 SE5       0.149000
     19 H3           5.0190     0.5080    -4.3940 hc         1 SE5       0.033700
     20 H4           5.7780     0.5090    -2.7970 hc         1 SE5       0.033700
     21 H5           4.8270    -1.9560    -4.3020 hc         1 SE5       0.056700
     22 H6           5.5850    -1.9560    -2.7040 hc         1 SE5       0.056700
     23 H7           6.1120    -1.4330    -6.2970 ha         1 SE5       0.140500
     24 H8           7.9440    -1.4470    -2.4390 ha         1 SE5       0.140500
     25 H9          10.1720    -1.4470    -3.4950 ha         1 SE5       0.135000
     26 H10          2.3900    -0.0040    -4.5160 h4         1 SE5       0.134000
     27 H11          8.3400    -1.4350    -7.3560 ha         1 SE5       0.135000
     28 H12          0.5470    -0.0090    -2.7360 hn         1 SE5       0.301700
@<TRIPOS>BOND
     1     3     2 1
     2     2     1 1
     3     2     4 1
     4    17     4 1
     5    17    14 1
     6     4     5 2
     7    14     6 2
     8     5     6 1
     9     6     7 1
    10     7     8 1
    11    15    13 1
    12    16    13 ar
    13    16    10 ar
    14    13    12 ar
    15    10     9 ar
    16    12    11 ar
    17     9    11 ar
    18     9     8 1
    19     5    18 1
    20     7    19 1
    21     7    20 1
    22     8    21 1
    23     8    22 1
    24    10    23 1
    25    11    24 1
    26    12    25 1
    27    14    26 1
    28    16    27 1
    29    17    28 1
@<TRIPOS>SUBSTRUCTURE
     1 SE5         1 TEMP              0 ****  ****    0 ROOT
