@<TRIPOS>MOLECULE
SE5
   28    29     1     0     0
SMALL
bcc


@<TRIPOS>ATOM
      1 O1          0.0280   -0.0070   -0.0770 o         1 SE5     -0.828800
      2 C1          1.2840   -0.1360    0.0060 c         1 SE5      0.932200
      3 O2          1.9210   -0.3290    1.0750 o         1 SE5     -0.828800
      4 C2          2.0750   -0.0520   -1.2850 cc        1 SE5     -0.131900
      5 C3          3.4590   -0.1500   -1.5170 cd        1 SE5     -0.205000
      6 C4          3.6710   -0.0040   -2.9290 cd        1 SE5     -0.192300
      7 C5          4.9600   -0.0250   -3.6310 c3        1 SE5      0.021900
      8 C6          5.6470   -1.3770   -3.4920 c3        1 SE5     -0.047100
      9 C7          6.9640   -1.4040   -4.1840 ca        1 SE5     -0.052300
     10 C8          7.0250   -1.4670   -5.5830 ca        1 SE5     -0.124500
     11 C9          8.1570   -1.3740   -3.4520 ca        1 SE5     -0.124500
     12 C10         9.3900   -1.4070   -4.0990 ca        1 SE5     -0.126500
     13 C11         9.4330   -1.4720   -5.4940 ca        1 SE5      0.003400
     14 C12         2.4060    0.1810   -3.5200 cc        1 SE5     -0.210300
     15 CL1        10.9390   -1.5160   -6.2930 cl        1 SE5     -0.124400
     16 C13         8.2520   -1.5010   -6.2410 ca        1 SE5     -0.126500
     17 N1          1.4520    0.1490   -2.5140 na        1 SE5     -0.153100
     18 H2          4.2140   -0.3060   -0.7550 ha        1 SE5      0.147000
     19 H3          5.6320    0.7710   -3.2090 hc        1 SE5      0.028700
     20 H4          4.8150    0.2040   -4.7210 hc        1 SE5      0.028700
     21 H5          4.9830   -2.1730   -3.9250 hc        1 SE5      0.059700
     22 H6          5.7720   -1.6080   -2.4000 hc        1 SE5      0.059700
     23 H7          6.0910   -1.4860   -6.1640 ha        1 SE5      0.141000
     24 H8          8.1190   -1.3210   -2.3530 ha        1 SE5      0.141000
     25 H9         10.3210   -1.3830   -3.5140 ha        1 SE5      0.137500
     26 H10         2.1410    0.3310   -4.5630 h4        1 SE5      0.136000
     27 H11         8.2890   -1.5490   -7.3390 ha        1 SE5      0.137500
     28 H12         0.4760    0.2530   -2.6140 hn        1 SE5      0.299700
@<TRIPOS>BOND
     1    1    2 1   
     2    2    3 1   
     3    2    4 1   
     4    4    5 2   
     5    4   17 1   
     6    5    6 1   
     7    5   18 1   
     8    6    7 1   
     9    6   14 2   
    10    7    8 1   
    11    7   19 1   
    12    7   20 1   
    13    8    9 1   
    14    8   21 1   
    15    8   22 1   
    16    9   10 ar  
    17    9   11 ar  
    18   10   16 ar  
    19   10   23 1   
    20   11   12 ar  
    21   11   24 1   
    22   12   13 ar  
    23   12   25 1   
    24   13   15 1   
    25   13   16 ar  
    26   14   17 1   
    27   14   26 1   
    28   16   27 1   
    29   17   28 1   
@<TRIPOS>SUBSTRUCTURE
     1 SE5         1 TEMP              0 ****  ****    0 ROOT
