@<TRIPOS>MOLECULE
SE8
   53    52     1     0     0
SMALL
bcc


@<TRIPOS>ATOM
      1 C1           0.0000     0.0000     0.0000 c          1 SE8       0.966600
      2 C2           1.5070     0.0000     0.0000 c3         1 SE8      -0.209500
      3 C3           2.0180     0.0000     1.4420 c3         1 SE8       0.070000
      4 N4           3.4780     0.1210     1.4430 ns         1 SE8      -0.302900
      5 C5           4.1510     0.1430     2.6110 c          1 SE8       0.571100
      6 C6           5.6530     0.2660     2.6120 c3         1 SE8      -0.104400
      7 C7           6.1640     0.2670     4.0540 c3         1 SE8       0.089800
      8 C8           7.6730     0.5180     4.0610 c3         1 SE8      -0.108400
      9 C9           8.1760     0.5180     5.4820 c          1 SE8       0.565100
     10 N10          9.4840     0.7210     5.7340 ns         1 SE8      -0.234900
     11 C11          9.9730     0.7220     7.1150 c3         1 SE8       0.043000
     12 C12         11.4820     0.9720     7.1220 c3         1 SE8       0.037000
     13 N13         11.9710     0.9720     8.5020 ns         1 SE8      -0.207900
     14 C14         13.2790     1.1750     8.7540 c          1 SE8       0.569100
     15 C15         13.7820     1.1750    10.1750 c3         1 SE8      -0.092400
     16 C16         15.2920     1.4260    10.1810 c3         1 SE8      -0.120400
     17 C17         15.7940     1.4260    11.6020 c          1 SE8       0.514100
     18 C18         17.2410     1.6500    11.8810 c          1 SE8       0.895600
     19 O19         -0.6700    -1.1440     0.2080 o          1 SE8      -0.821800
     20 O20         -0.6040     1.0300    -0.1810 o          1 SE8      -0.821800
     21 N21          1.9970     1.1990    -0.6930 nz         1 SE8       0.046400
     22 O22          3.5480     0.0620     3.6590 o          1 SE8      -0.511100
     23 C23          5.4700     1.3550     4.8320 c          1 SE8       0.983600
     24 O24          5.5880     2.6360     4.4460 o          1 SE8      -0.866800
     25 O25          4.8080     1.0760     5.8030 o          1 SE8      -0.866800
     26 O26          5.8880    -0.9990     4.6570 oh         1 SE8      -0.515800
     27 O27          7.4020     0.3360     6.3990 o          1 SE8      -0.562100
     28 O28         14.0520     1.3570     7.8380 o          1 SE8      -0.659100
     29 O29         15.0250     1.2450    12.5150 o          1 SE8      -0.589100
     30 O30         17.6900     1.6510    13.1500 o          1 SE8      -0.869800
     31 O31         18.0130     1.8330    10.9640 o          1 SE8      -0.869800
     32 H2           1.8680    -0.8850    -0.5110 hx         1 SE8       0.079700
     33 H3           1.5850     0.8360     1.9790 h1         1 SE8       0.063700
     34 H3A          1.7320    -0.9260     1.9270 h1         1 SE8       0.063700
     35 HN4          3.9710     0.2260     0.5790 hn         1 SE8       0.136500
     36 H6           5.9390     1.1910     2.1260 hc         1 SE8       0.015200
     37 H6A          6.0840    -0.5710     2.0760 hc         1 SE8       0.015200
     38 H8           7.8820     1.4770     3.6040 hc         1 SE8       0.017700
     39 H8A          8.1720    -0.2650     3.5020 hc         1 SE8       0.017700
     40 HN10        10.1230     0.8590     4.9770 hn         1 SE8       0.163500
     41 H11          9.7640    -0.2380     7.5730 h1         1 SE8       0.025200
     42 H11A         9.4750     1.5040     7.6740 h1         1 SE8       0.025200
     43 H12         11.9800     0.1900     6.5620 h1         1 SE8       0.020200
     44 H12A        11.6900     1.9320     6.6650 h1         1 SE8       0.020200
     45 HN13        11.3330     0.8220     9.2590 hn         1 SE8       0.178500
     46 H15         13.5730     0.2150    10.6320 hc         1 SE8       0.032700
     47 H15A        13.2830     1.9580    10.7340 hc         1 SE8       0.032700
     48 H16         15.7900     0.6430     9.6220 hc         1 SE8       0.048200
     49 H16A        15.5000     2.3850     9.7240 hc         1 SE8       0.048200
     50 HN21         2.4040     1.8260    -0.0270 hn         1 SE8       0.216800
     51 HN2A         1.2330     1.6530    -1.1550 hn         1 SE8       0.216800
     52 HO26         6.2980    -1.6830     4.1530 ho         1 SE8       0.329000
     53 H213         2.6770     0.9340    -1.3770 hn         1 SE8       0.216800
@<TRIPOS>BOND
     1     1     2 1   
     2     1    19 1   
     3     1    20 1   
     4     2     3 1   
     5     2    21 1   
     6     2    32 1   
     7     3     4 1   
     8     3    33 1   
     9     3    34 1   
    10     4     5 1   
    11     4    35 1   
    12     5     6 1   
    13     5    22 2   
    14     6     7 1   
    15     6    36 1   
    16     6    37 1   
    17     7     8 1   
    18     7    23 1   
    19     7    26 1   
    20     8     9 1   
    21     8    38 1   
    22     8    39 1   
    23     9    10 1   
    24     9    27 2   
    25    10    11 1   
    26    10    40 1   
    27    11    12 1   
    28    11    41 1   
    29    11    42 1   
    30    12    13 1   
    31    12    43 1   
    32    12    44 1   
    33    13    14 1   
    34    13    45 1   
    35    14    15 1   
    36    14    28 2   
    37    15    16 1   
    38    15    46 1   
    39    15    47 1   
    40    16    17 1   
    41    16    48 1   
    42    16    49 1   
    43    17    18 1   
    44    17    29 2   
    45    18    30 1   
    46    18    31 1   
    47    21    50 1   
    48    21    51 1   
    49    21    53 1   
    50    23    24 1   
    51    23    25 1   
    52    26    52 1   
@<TRIPOS>SUBSTRUCTURE
     1 SE8         1 TEMP              0 ****  ****    0 ROOT
