@<TRIPOS>MOLECULE
SEA
   12    11     1     0     0
SMALL
bcc


@<TRIPOS>ATOM
      1 N            0.0000     0.0000     0.0000 nz         1 SEA       0.083400
      2 CA           1.4690     0.0000     0.0000 c3         1 SEA      -0.022200
      3 CB           1.9810     0.0000     1.4410 c3         1 SEA       0.050700
      4 SG           3.7930     0.0010     1.4410 sh         1 SEA      -0.313900
      5 HN1         -0.3340    -0.0000    -0.9440 hn         1 SEA       0.225800
      6 HN2         -0.3340    -0.8170     0.4720 hn         1 SEA       0.225800
      7 HA1          1.8300    -0.8840    -0.5110 hx         1 SEA       0.098700
      8 HA2          1.8300     0.8840    -0.5110 hx         1 SEA       0.098700
      9 HB1          1.6210    -0.8850     1.9520 h1         1 SEA       0.047700
     10 HB2          1.6200     0.8840     1.9520 h1         1 SEA       0.047700
     11 HG           4.2360     0.0010     2.6920 hs         1 SEA       0.231800
     12 HN3         -0.3340     0.8170     0.4720 hn         1 SEA       0.225800
@<TRIPOS>BOND
     1     1     2 1   
     2     1     5 1   
     3     1     6 1   
     4     1    12 1   
     5     2     3 1   
     6     2     7 1   
     7     2     8 1   
     8     3     4 1   
     9     3     9 1   
    10     3    10 1   
    11     4    11 1   
@<TRIPOS>SUBSTRUCTURE
     1 SEA         1 TEMP              0 ****  ****    0 ROOT
