@<TRIPOS>MOLECULE
SEF
   64    63     1     0     0
SMALL
bcc


@<TRIPOS>ATOM
      1 F            0.0000     0.0000     0.0000 f          1 SEF      -0.236400
      2 C1           2.2780     1.4880    -0.8580 c3         1 SEF       0.015400
      3 O1           2.1630    -1.2080    -0.6970 o          1 SEF      -0.604300
      4 P1           1.6700     0.0000     0.0000 p5         1 SEF       0.868300
      5 C2           1.7690     1.4890    -2.3010 c3         1 SEF       0.008600
      6 O2           2.2060     0.0000     1.5190 os         1 SEF      -0.517200
      7 C3           2.2790     2.7370    -3.0230 c3         1 SEF      -0.061400
      8 C4           1.7700     2.7380    -4.4650 c3         1 SEF      -0.053400
      9 C5           2.2800     3.9870    -5.1860 c3         1 SEF      -0.121400
     10 C6           1.7710     3.9870    -6.6290 c3         1 SEF       0.018600
     11 C7           2.2810     5.2370    -7.3500 c3         1 SEF      -0.077400
     12 C8           1.7720     5.2360    -8.7930 c3         1 SEF       0.043600
     13 C9           2.2820     6.4850    -9.5130 c3         1 SEF      -0.036400
     14 C01          1.9000    -1.0380     2.4520 c3         1 SEF       0.321400
     15 N01          2.3110     8.9020   -13.6220 ns         1 SEF      -0.244900
     16 O01          2.2570     7.6700   -11.6410 os         1 SEF      -0.423900
     17 C02          2.5640    -0.7280     3.7950 c3         1 SEF      -0.018100
     18 O02          1.1960     6.9890   -13.4670 o          1 SEF      -0.663000
     19 C10          1.7730     6.4860   -10.9570 c3         1 SEF       0.203400
     20 C12          1.8960     7.8230   -12.9290 c          1 SEF       0.643100
     21 C14          1.9190     9.0680   -15.0240 c3         1 SEF       0.078000
     22 C15          2.5190    10.3650   -15.5710 c3         1 SEF      -0.031400
     23 C16          2.1080    10.5380   -17.0350 c3         1 SEF      -0.037400
     24 C17          2.7090    11.8340   -17.5830 c3         1 SEF      -0.011400
     25 C18          2.2990    12.0080   -19.0460 c3         1 SEF       0.049700
     26 C19          2.8750    13.2550   -19.5730 c1         1 SEF      -0.194100
     27 C20          3.3540    14.2420   -19.9900 c1         1 SEF      -0.137500
     28 H1           1.5530     2.2790    -0.7050 hc         1 SEF       0.057200
     29 H1A          3.2470     1.7040    -0.4230 hc         1 SEF       0.057200
     30 H2           0.7100     1.3560    -2.4850 hc         1 SEF       0.034700
     31 H41          2.2230     0.9110    -3.0970 hc         1 SEF       0.034700
     32 H3           1.5420     3.5040    -2.8170 hc         1 SEF       0.011700
     33 H61          3.0970     3.3760    -2.7120 hc         1 SEF       0.011700
     34 H4           2.2060     2.0090    -5.1380 hc         1 SEF       0.016700
     35 H4A          0.6930     2.7080    -4.5750 hc         1 SEF       0.016700
     36 H5           1.4020     4.5810    -4.9620 hc         1 SEF       0.039700
     37 H5A          3.0680     4.1700    -4.4640 hc         1 SEF       0.039700
     38 H6           0.7190     4.1840    -6.7960 hc         1 SEF       0.029200
     39 H6A          2.2340     3.0570    -6.9360 hc         1 SEF       0.029200
     40 H7           1.5870     6.0510    -7.1780 hc         1 SEF       0.020200
     41 H7A          3.1400     5.6540    -6.8390 hc         1 SEF       0.020200
     42 H8           0.6950     5.1220    -8.7770 hc         1 SEF       0.004700
     43 H8A          1.9390     4.2670    -9.2490 hc         1 SEF       0.004700
     44 H9           3.3300     6.6530    -9.7300 hc         1 SEF       0.025700
     45 H9A          2.0000     7.4960    -9.2470 hc         1 SEF       0.025700
     46 H01          2.1450    -1.9570     1.9340 h1         1 SEF       0.003700
     47 H201         0.8910    -0.6570     2.3480 h1         1 SEF       0.003700
     48 HN01         2.8310     9.2600   -12.8450 hn         1 SEF       0.201500
     49 H02          2.3950    -1.2310     4.7400 hc         1 SEF       0.005367
     50 H02A         3.5510    -0.2810     3.8230 hc         1 SEF       0.005367
     51 H24          2.0030     0.1690     4.0290 hc         1 SEF       0.005367
     52 H10          1.8550     5.4580   -11.2900 h1         1 SEF       0.011700
     53 H10A         0.7170     6.6980   -11.0710 h1         1 SEF       0.011700
     54 H14          2.2140     8.0460   -15.2290 h1         1 SEF       0.032700
     55 H14A         0.8430     9.0740   -15.1470 h1         1 SEF       0.032700
     56 H15          2.1950    11.0610   -14.8070 hc         1 SEF       0.022200
     57 H15A         3.5620    10.0990   -15.4480 hc         1 SEF       0.022200
     58 H16          2.5460     9.6090   -17.3800 hc         1 SEF       0.027200
     59 H16A         1.0350    10.6580   -17.1190 hc         1 SEF       0.027200
     60 H17          2.1450    12.5590   -17.0080 hc         1 SEF       0.049700
     61 H17A         3.7360    11.5030   -17.6810 hc         1 SEF       0.049700
     62 H18          1.4080    12.5980   -19.2270 hc         1 SEF       0.046200
     63 H18A         2.5300    11.2380   -19.7730 hc         1 SEF       0.046200
     64 H20          3.4010    15.1280   -20.6120 ha         1 SEF       0.137500
@<TRIPOS>BOND
     1     1     4 1   
     2     2     4 1   
     3     2     5 1   
     4     2    28 1   
     5     2    29 1   
     6     3     4 2   
     7     4     6 1   
     8     5     7 1   
     9     5    30 1   
    10     5    31 1   
    11     6    14 1   
    12     7     8 1   
    13     7    32 1   
    14     7    33 1   
    15     8     9 1   
    16     8    34 1   
    17     8    35 1   
    18     9    10 1   
    19     9    36 1   
    20     9    37 1   
    21    10    11 1   
    22    10    38 1   
    23    10    39 1   
    24    11    12 1   
    25    11    40 1   
    26    11    41 1   
    27    12    13 1   
    28    12    42 1   
    29    12    43 1   
    30    13    19 1   
    31    13    44 1   
    32    13    45 1   
    33    14    17 1   
    34    14    46 1   
    35    14    47 1   
    36    15    20 1   
    37    15    21 1   
    38    15    48 1   
    39    16    19 1   
    40    16    20 1   
    41    17    49 1   
    42    17    50 1   
    43    17    51 1   
    44    18    20 2   
    45    19    52 1   
    46    19    53 1   
    47    21    22 1   
    48    21    54 1   
    49    21    55 1   
    50    22    23 1   
    51    22    56 1   
    52    22    57 1   
    53    23    24 1   
    54    23    58 1   
    55    23    59 1   
    56    24    25 1   
    57    24    60 1   
    58    24    61 1   
    59    25    26 1   
    60    25    62 1   
    61    25    63 1   
    62    26    27 3   
    63    27    64 1   
@<TRIPOS>SUBSTRUCTURE
     1 SEF         1 TEMP              0 ****  ****    0 ROOT
