@<TRIPOS>MOLECULE
molecule
   29    29     1     0     0
SMALL
bcc


@<TRIPOS>ATOM
      1 C1           0.0000     0.0000     0.0000 c3         1 SEH      -0.030300
      2 S1           1.8090     0.0000     0.0000 ss         1 SEH      -0.233300
      3 C2          -0.5110     0.0000     1.4420 c3         1 SEH      -0.076100
      4 CB           0.9670    -0.1080    -2.7030 c3         1 SEH      -0.052400
      5 CG           1.4940    -0.2510    -4.1080 ca         1 SEH      -0.074300
      6 CD1          1.6290    -1.5070    -4.6710 ca         1 SEH      -0.098000
      7 CD2          1.8380     0.8730    -4.8350 ca         1 SEH      -0.098000
      8 CE1          2.1130    -1.6380    -5.9590 ca         1 SEH      -0.118500
      9 CE2          2.3260     0.7410    -6.1220 ca         1 SEH      -0.118500
     10 CZ           2.4620    -0.5140    -6.6840 ca         1 SEH      -0.122000
     11 C13          2.1150    -0.1450    -1.7290 c2         1 SEH       0.367200
     12 N17          3.3260    -0.2830    -2.1620 n2         1 SEH      -0.288200
     13 O18          4.3940    -0.4260    -1.2430 os         1 SEH      -0.366200
     14 S19          5.6660    -0.5650    -2.0670 s6         1 SEH       1.558300
     15 O20          5.3100    -1.3450    -3.2000 o          1 SEH      -0.727200
     16 O21          6.6950    -0.8860    -1.1390 o          1 SEH      -0.727200
     17 O22          6.0130     0.8140    -2.6070 o          1 SEH      -0.727200
     18 H1C1        -0.3610    -0.8840    -0.5110 h1         1 SEH       0.053200
     19 H1C2        -0.3610     0.8840    -0.5110 h1         1 SEH       0.053200
     20 H2C1        -0.1500     0.8850     1.9530 hc         1 SEH       0.039033
     21 H2C2        -1.5940    -0.0000     1.4420 hc         1 SEH       0.039033
     22 H2C3        -0.1500    -0.8840     1.9530 hc         1 SEH       0.039033
     23 HBC1         0.2850    -0.9230    -2.4890 hc         1 SEH       0.052200
     24 HBC2         0.4430     0.8350    -2.6090 hc         1 SEH       0.052200
     25 HD1          1.3560    -2.3870    -4.1030 ha         1 SEH       0.124000
     26 HD2          1.7320     1.8570    -4.3940 ha         1 SEH       0.124000
     27 HE1          2.2190    -2.6220    -6.4000 ha         1 SEH       0.120000
     28 HE2          2.5980     1.6220    -6.6910 ha         1 SEH       0.120000
     29 HZ           2.8430    -0.6160    -7.6930 ha         1 SEH       0.116000
@<TRIPOS>BOND
     1     1     2 1
     2     1     3 1
     3     1    18 1
     4     1    19 1
     5     2    11 1
     6     3    20 1
     7     3    21 1
     8     3    22 1
     9     4     5 1
    10     4    11 1
    11     4    23 1
    12     4    24 1
    13     5     6 ar
    14     5     7 ar
    15     6     8 ar
    16     6    25 1
    17     7     9 ar
    18     7    26 1
    19     8    10 ar
    20     8    27 1
    21     9    10 ar
    22     9    28 1
    23    10    29 1
    24    11    12 2
    25    12    13 1
    26    13    14 1
    27    14    15 1
    28    14    16 1
    29    14    17 1
@<TRIPOS>SUBSTRUCTURE
     1 SEH         1 TEMP              0 ****  ****    0 ROOT
