@<TRIPOS>MOLECULE
SEI
   81    83     1     0     0
SMALL
bcc


@<TRIPOS>ATOM
      1 C2           0.0000     0.0000     0.0000 c3         1 SEI       0.186400
      2 C3           1.5310     0.0000     0.0000 c3         1 SEI      -0.000500
      3 C15          2.9550    -0.8430     1.8190 c          1 SEI       0.612700
      4 C19          4.5080    -0.5050     5.7640 ca         1 SEI      -0.136600
      5 C20          4.3670    -1.7620     5.1750 ca         1 SEI      -0.069000
      6 C21          3.8640    -1.8710     3.8970 ca         1 SEI      -0.081500
      7 C22          3.4940    -0.7250     3.1920 ca         1 SEI      -0.131600
      8 C30          7.2420     1.0860     9.0030 c3         1 SEI      -0.049700
      9 C31          7.6050     2.3590     8.2370 c3         1 SEI      -0.025100
     10 C35          7.8050     1.1680    10.4220 c3         1 SEI      -0.025100
     11 O1          -0.4800     1.1110     0.7560 os         1 SEI      -0.388600
     12 N4           1.9910     0.0000     1.4000 n          1 SEI      -0.152800
     13 C5           1.3530     0.9520     2.3240 c3         1 SEI      -0.000500
     14 C6          -0.1610     0.8740     2.1260 c3         1 SEI       0.186400
     15 O16          3.3800    -1.7000     1.0700 o          1 SEI      -0.640100
     16 C17          3.6350     0.5310     3.7820 ca         1 SEI      -0.081500
     17 C18          4.1330     0.6410     5.0620 ca         1 SEI      -0.069000
     18 N28          5.1850     0.8270     7.7070 ns         1 SEI      -0.176900
     19 C29          5.7200     0.9440     9.0660 c3         1 SEI      -0.054300
     20 C40          5.1300     2.1560     9.7340 c          1 SEI       0.615100
     21 O42          4.9540     3.1740     9.1000 o          1 SEI      -0.644100
     22 C44          4.3280     3.2480    11.8450 c3         1 SEI      -0.035300
     23 C45          4.8470     0.9130    11.8970 c3         1 SEI       0.030000
     24 C46          3.8340     1.1950    13.0340 c3         1 SEI      -0.027400
     25 C47          4.0430     2.7150    13.2660 c3         1 SEI      -0.032400
     26 C52          5.3880     4.3180    11.9030 c          1 SEI       0.571100
     27 N53          5.1660     5.4480    12.6020 ns         1 SEI      -0.187900
     28 N54          4.7970     2.1100    11.0390 n          1 SEI      -0.129800
     29 C59          6.1950     6.4890    12.6580 c3         1 SEI      -0.079300
     30 C61          5.9910     7.4690    11.5010 c3         1 SEI      -0.056700
     31 C62          4.5840     8.0620    11.5760 c3         1 SEI      -0.010600
     32 C66          7.0240     8.5940    11.5980 c3         1 SEI      -0.010600
     33 C71          6.0920     7.2290    13.9670 c          1 SEI       0.546100
     34 C73          7.3060     7.3790    14.8460 c3         1 SEI       0.248600
     35 O74          5.0350     7.7020    14.3110 o          1 SEI      -0.458100
     36 F75          8.2950     8.0860    14.1570 f          1 SEI      -0.175300
     37 F76          6.9590     8.0760    16.0080 f          1 SEI      -0.175300
     38 C77          7.8370     5.9950    15.2220 c3         1 SEI       0.548900
     39 F78          8.9640     6.1340    16.0390 f          1 SEI      -0.183633
     40 F79          6.8470     5.2870    15.9120 f          1 SEI      -0.183633
     41 F80          8.1850     5.2970    14.0610 f          1 SEI      -0.183633
     42 H21         -0.3590    -0.9200     0.4460 h1         1 SEI       0.016950
     43 H22         -0.3590     0.0770    -1.0190 h1         1 SEI       0.016950
     44 H31          1.8960     0.8880    -0.5030 h1         1 SEI       0.042700
     45 H32          1.8960    -0.8880    -0.5030 h1         1 SEI       0.042700
     46 H201         4.6540    -2.6510     5.7220 ha         1 SEI       0.121500
     47 H211         3.7550    -2.8470     3.4400 ha         1 SEI       0.123000
     48 H301         7.6710     0.2270     8.5000 hc         1 SEI       0.043700
     49 H311         7.1660     3.2170     8.7330 hc         1 SEI       0.016367
     50 H312         8.6820     2.4700     8.2090 hc         1 SEI       0.016367
     51 H313         7.2230     2.2930     7.2250 hc         1 SEI       0.016367
     52 H351         8.8860     1.1040    10.3860 hc         1 SEI       0.016367
     53 H352         7.4150     0.3480    11.0130 hc         1 SEI       0.016367
     54 H353         7.5130     2.1090    10.8730 hc         1 SEI       0.016367
     55 H51          1.6960     1.9560     2.1070 h1         1 SEI       0.042700
     56 H52          1.6000     0.6890     3.3450 h1         1 SEI       0.042700
     57 H61         -0.6430     1.6240     2.7420 h1         1 SEI       0.016950
     58 H62         -0.5100    -0.1110     2.4110 h1         1 SEI       0.016950
     59 H171         3.3440     1.4200     3.2370 ha         1 SEI       0.123000
     60 H182         4.2420     1.6180     5.5190 ha         1 SEI       0.121500
     61 H281         4.8890     1.6470     7.2140 hn         1 SEI       0.200500
     62 H291         5.4630     0.0580     9.6330 h1         1 SEI       0.065700
     63 H441         3.4180     3.6480    11.4160 h1         1 SEI       0.050700
     64 H451         5.8420     0.7840    12.3050 h1         1 SEI       0.033200
     65 H452         4.5460     0.0360    11.3360 h1         1 SEI       0.033200
     66 H461         4.0860     0.6310    13.9240 hc         1 SEI       0.029700
     67 H462         2.8220     0.9900    12.7090 hc         1 SEI       0.029700
     68 H471         4.8920     2.8890    13.9160 hc         1 SEI       0.029200
     69 H472         3.1440     3.1660    13.6690 hc         1 SEI       0.029200
     70 H531         4.2980     5.5770    13.0830 hn         1 SEI       0.189500
     71 H591         7.1740     6.0330    12.5770 h1         1 SEI       0.092700
     72 H611         6.1120     6.9470    10.5600 hc         1 SEI       0.060700
     73 H621         4.5670     8.8610    12.3080 hc         1 SEI       0.012867
     74 H622         3.8820     7.2910    11.8670 hc         1 SEI       0.012867
     75 H623         4.3060     8.4560    10.6050 hc         1 SEI       0.012867
     76 H661         6.8040     9.2140    12.4580 hc         1 SEI       0.012867
     77 H662         6.9860     9.1970    10.6990 hc         1 SEI       0.012867
     78 H663         8.0140     8.1670    11.7040 hc         1 SEI       0.012867
     79 C27          5.0490    -0.3870     7.1370 c          1 SEI       0.592700
     80 O58          6.4380     4.1630    11.3200 o          1 SEI      -0.620100
     81 O81          5.3720    -1.3850     7.7510 o          1 SEI      -0.656100
@<TRIPOS>BOND
     1     1     2 1   
     2     1    11 1   
     3     1    42 1   
     4     1    43 1   
     5     2    12 1   
     6     2    44 1   
     7     2    45 1   
     8     3     7 1   
     9     3    12 1   
    10     3    15 2   
    11     4     5 ar  
    12     4    17 ar  
    13     4    79 1   
    14     5     6 ar  
    15     5    46 1   
    16     6     7 ar  
    17     6    47 1   
    18     7    16 ar  
    19     8     9 1   
    20     8    10 1   
    21     8    19 1   
    22     8    48 1   
    23     9    49 1   
    24     9    50 1   
    25     9    51 1   
    26    10    52 1   
    27    10    53 1   
    28    10    54 1   
    29    11    14 1   
    30    12    13 1   
    31    13    14 1   
    32    13    55 1   
    33    13    56 1   
    34    14    57 1   
    35    14    58 1   
    36    16    17 ar  
    37    16    59 1   
    38    17    60 1   
    39    18    19 1   
    40    18    61 1   
    41    18    79 1   
    42    19    20 1   
    43    19    62 1   
    44    20    21 2   
    45    20    28 1   
    46    22    25 1   
    47    22    26 1   
    48    22    28 1   
    49    22    63 1   
    50    23    24 1   
    51    23    28 1   
    52    23    64 1   
    53    23    65 1   
    54    24    25 1   
    55    24    66 1   
    56    24    67 1   
    57    25    68 1   
    58    25    69 1   
    59    26    27 1   
    60    26    80 2   
    61    27    29 1   
    62    27    70 1   
    63    29    30 1   
    64    29    33 1   
    65    29    71 1   
    66    30    31 1   
    67    30    32 1   
    68    30    72 1   
    69    31    73 1   
    70    31    74 1   
    71    31    75 1   
    72    32    76 1   
    73    32    77 1   
    74    32    78 1   
    75    33    34 1   
    76    33    35 2   
    77    34    36 1   
    78    34    37 1   
    79    34    38 1   
    80    38    39 1   
    81    38    40 1   
    82    38    41 1   
    83    79    81 2   
@<TRIPOS>SUBSTRUCTURE
     1 SEI         1 TEMP              0 ****  ****    0 ROOT
