@<TRIPOS>MOLECULE
molecule
   10     9     1     0     0
SMALL
bcc


@<TRIPOS>ATOM
      1 OB1          0.0000     0.0000     0.0000 oh         1 SEO      -0.611800
      2 CB1          1.4300     0.0000     0.0000 c3         1 SEO       0.156400
      3 CB           1.9390     0.0000     1.4410 c3         1 SEO       0.039700
      4 SG           3.7520    -0.0000     1.4420 sh         1 SEO      -0.428900
      5 HO1         -0.3140    -0.0000    -0.8890 ho         1 SEO       0.409000
      6 HB11         1.7910    -0.8850    -0.5110 h1         1 SEO       0.035700
      7 HB12         1.7910     0.8850    -0.5110 h1         1 SEO       0.035700
      8 HB1          1.5770    -0.8840     1.9510 h1         1 SEO       0.068700
      9 HB2          1.5770     0.8840     1.9510 h1         1 SEO       0.068700
     10 HS           4.1940    -0.0000     2.6940 hs         1 SEO       0.227800
@<TRIPOS>BOND
     1     1     2 1
     2     1     5 1
     3     2     3 1
     4     2     6 1
     5     2     7 1
     6     3     4 1
     7     3     8 1
     8     3     9 1
     9     4    10 1
@<TRIPOS>SUBSTRUCTURE
     1 SEO         1 TEMP              0 ****  ****    0 ROOT
