@<TRIPOS>MOLECULE
molecule
   31    31     1     0     0
SMALL
bcc


@<TRIPOS>ATOM
      1 C1           0.0000     0.0000     0.0000 c3         1 SES      -0.091100
      2 C2           1.5300     0.0000     0.0000 c3         1 SES      -0.085400
      3 C3           2.0400     0.0000     1.4430 c3         1 SES      -0.078400
      4 C4           3.5690    -0.0000     1.4440 c3         1 SES      -0.118700
      5 C11          5.6030    -4.3810     1.7190 c3         1 SES      -0.094100
      6 C12          5.6760    -2.9660     2.2980 c3         1 SES      -0.084400
      7 N21          4.1830     1.1670     3.4900 nc         1 SES      -0.806000
      8 C22          4.6050     1.3210     4.7280 cd         1 SES       0.901300
      9 N22          4.7590     2.4630     5.4640 nv         1 SES      -0.968500
     10 SE1          4.9570    -0.5690     5.2270 ss         1 SES      -0.627300
     11 C24          4.3800    -1.1800     3.4290 cd         1 SES      -0.000700
     12 C25          4.0720    -0.0000     2.8650 cc         1 SES       0.426600
     13 H11         -0.3610     0.8720     0.5310 hc         1 SES       0.033033
     14 H12         -0.3610    -0.8960     0.4900 hc         1 SES       0.033033
     15 H13         -0.3610     0.0240    -1.0210 hc         1 SES       0.033033
     16 H21          1.8910     0.8850    -0.5110 hc         1 SES       0.039200
     17 H22          1.8910    -0.8850    -0.5110 hc         1 SES       0.039200
     18 H31          1.6790     0.8850     1.9540 hc         1 SES       0.048700
     19 H32          1.6780    -0.8840     1.9540 hc         1 SES       0.048700
     20 H41          3.9300    -0.8850     0.9330 hc         1 SES       0.055700
     21 H42          3.9300     0.8840     0.9330 hc         1 SES       0.055700
     22 H111         6.6030    -4.7310     1.4940 hc         1 SES       0.034367
     23 H112         5.1420    -5.0430     2.4410 hc         1 SES       0.034367
     24 H113         5.0110    -4.3690     0.8110 hc         1 SES       0.034367
     25 H121         6.4130    -2.9390     3.0920 hc         1 SES       0.048700
     26 H122         5.9600    -2.2710     1.5170 hc         1 SES       0.048700
     27 H131         3.5710    -2.6000     2.0640 hc         1 SES       0.058700
     28 H132         4.0230    -3.2690     3.6380 hc         1 SES       0.058700
     29 HN21         4.7030     3.3570     5.0180 hn         1 SES       0.456800
     30 HN22         4.9060     2.4060     6.4520 hn         1 SES       0.456800
     31 C13          4.3070    -2.5730     2.8580 c3         1 SES       0.010900
@<TRIPOS>BOND
     1     1     2 1
     2     1    13 1
     3     1    14 1
     4     1    15 1
     5     2     3 1
     6     2    16 1
     7     2    17 1
     8     3     4 1
     9     3    18 1
    10     3    19 1
    11     4    12 1
    12     4    20 1
    13     4    21 1
    14     5     6 1
    15     5    22 1
    16     5    23 1
    17     5    24 1
    18     6    31 1
    19     6    25 1
    20     6    26 1
    21    31    11 1
    22    31    27 1
    23    31    28 1
    24     7     8 2
    25     7    12 1
    26     8     9 1
    27     8    10 1
    28     9    29 1
    29     9    30 1
    30    10    11 1
    31    11    12 2
@<TRIPOS>SUBSTRUCTURE
     1 SES         1 TEMP              0 ****  ****    0 ROOT
