@<TRIPOS>MOLECULE
SEU
   15    14     1     0     0
SMALL
bcc


@<TRIPOS>ATOM
      1 C1           0.0000     0.0000     0.0000 c3         1 SEU       0.030900
      2 C2           1.5310     0.0000     0.0000 c3         1 SEU       0.089700
      3 S3           2.1340     0.0000     1.7060 ss         1 SEU      -0.233300
      4 C4           3.8710    -0.0000     1.4170 c2         1 SEU       0.151100
      5 N5           4.3280    -0.0000     0.1950 n2         1 SEU      -0.502100
      6 N6           4.7450    -0.0000     2.4780 nz         1 SEU       0.216400
      7 H11         -0.3610    -0.8850     0.5110 hc         1 SEU       0.033033
      8 H12         -0.3610    -0.0000    -1.0210 hc         1 SEU       0.033033
      9 H13         -0.3610     0.8850     0.5110 hc         1 SEU       0.033033
     10 H21          1.8920     0.8850    -0.5110 h1         1 SEU       0.049700
     11 H22          1.8920    -0.8850    -0.5110 h1         1 SEU       0.049700
     12 HN5          3.6920    -0.0000    -0.5780 hn         1 SEU       0.382400
     13 HN61         5.3220    -0.8170     2.4350 hn         1 SEU       0.221800
     14 HN62         4.2290    -0.0000     3.3360 hn         1 SEU       0.221800
     15 H63          5.3210     0.8170     2.4360 hn         1 SEU       0.221800
@<TRIPOS>BOND
     1     1     2 1   
     2     1     7 1   
     3     1     8 1   
     4     1     9 1   
     5     2     3 1   
     6     2    10 1   
     7     2    11 1   
     8     3     4 1   
     9     4     5 2   
    10     4     6 1   
    11     5    12 1   
    12     6    13 1   
    13     6    14 1   
    14     6    15 1   
@<TRIPOS>SUBSTRUCTURE
     1 SEU         1 TEMP              0 ****  ****    0 ROOT
