@<TRIPOS>MOLECULE
molecule
   10     9     1     0     0
SMALL
bcc


@<TRIPOS>ATOM
      1 SE           0.0000     0.0000     0.0000 s          1 SEY       0.331600
      2 C            1.7040     0.0000     0.0000 cs         1 SEY      -0.097600
      3 N2           2.4020     0.0000     1.2090 nz         1 SEY      -0.608900
      4 N1           2.4020    -0.0060    -1.2090 nz         1 SEY      -0.608900
      5 H2           2.9730    -0.8200     1.2650 hn         1 SEY       0.497133
      6 H3           1.7520    -0.0030    -1.9700 hn         1 SEY       0.497133
      7 H4           2.9820     0.8080    -1.2630 hn         1 SEY       0.497133
      8 H1           1.7520     0.0060     1.9700 hn         1 SEY       0.497133
      9 H23          2.9820     0.8140     1.2600 hn         1 SEY       0.497133
     10 H13          3.0000    -0.8080    -1.2460 hn         1 SEY       0.497133
@<TRIPOS>BOND
     1     1     2 2
     2     3     2 1
     3     2     4 1
     4     3     5 1
     5     4     6 1
     6     4     7 1
     7     3     8 1
     8     9     3 1
     9    10     4 1
@<TRIPOS>SUBSTRUCTURE
     1 SEY         1 TEMP              0 ****  ****    0 ROOT
