@<TRIPOS>MOLECULE
SF1
   42    45     1     0     0
SMALL
bcc


@<TRIPOS>ATOM
      1 CAJ         0.3380   -0.3550    0.5390 ca        1 SF1     -0.111500
      2 CAF         1.7010   -0.1520    0.7520 ca        1 SF1     -0.142500
      3 CAD         2.1420    0.5370    1.8820 ca        1 SF1     -0.136000
      4 CAG         1.2170    1.0220    2.8060 ca        1 SF1     -0.142500
      5 CAK        -0.1470    0.8180    2.6000 ca        1 SF1     -0.111500
      6 CAU        -0.5900    0.1340    1.4650 ca        1 SF1     -0.108300
      7 CAQ        -2.0630   -0.0430    1.2150 c3        1 SF1      0.079600
      8 NBA        -2.5210   -1.4040    1.2260 na        1 SF1     -0.057400
      9 CAX        -2.7120   -2.2020    0.0950 cc        1 SF1      0.031700
     10 CAS        -2.3840   -1.6390   -1.2980 c         1 SF1      0.925800
     11 OAB        -3.1950   -0.8160   -1.7850 o         1 SF1     -0.791300
     12 OAA        -1.2850   -1.9990   -1.7970 o         1 SF1     -0.791300
     13 CAZ        -2.8430   -2.1510    2.3700 ca        1 SF1     -0.059200
     14 CAO        -2.8170   -1.8160    3.7280 ca        1 SF1     -0.129000
     15 CAN        -3.2120   -2.7780    4.6500 ca        1 SF1     -0.142000
     16 CAT        -3.6260   -4.0500    4.2210 ca        1 SF1     -0.005600
     17 CLAC       -4.1020   -5.1950    5.4020 cl        1 SF1     -0.146400
     18 CAP        -3.6620   -4.4070    2.8750 ca        1 SF1     -0.094000
     19 CAY        -3.2700   -3.4620    1.9300 ca        1 SF1     -0.029800
     20 CAW        -3.1890   -3.4720    0.4810 cd        1 SF1     -0.177600
     21 SAR        -3.7410   -4.7310   -0.4570 ss        1 SF1     -0.086500
     22 CAV        -2.3980   -5.6430   -0.9540 ca        1 SF1     -0.018100
     23 CAL        -1.1220   -5.1230   -1.2000 ca        1 SF1     -0.118500
     24 CAH        -0.1020   -5.9550   -1.6550 ca        1 SF1     -0.134000
     25 CAE        -0.3450   -7.3090   -1.8870 ca        1 SF1     -0.156000
     26 CAI        -1.6190   -7.8300   -1.6610 ca        1 SF1     -0.134000
     27 CAM        -2.6360   -7.0050   -1.1900 ca        1 SF1     -0.118500
     28 HAJ        -0.0180   -0.9040   -0.3580 ha        1 SF1      0.159500
     29 HAF         2.4280   -0.5400    0.0240 ha        1 SF1      0.123000
     30 HAD         3.2170    0.6950    2.0470 ha        1 SF1      0.116000
     31 HAG         1.5610    1.5620    3.6990 ha        1 SF1      0.123000
     32 HAK        -0.8740    1.1940    3.3350 ha        1 SF1      0.159500
     33 HAQ1       -2.6460    0.5260    1.9970 h1        1 SF1      0.079700
     34 HAQ2       -2.3090    0.3860    0.1940 h1        1 SF1      0.079700
     35 HAO        -2.4850   -0.8230    4.0590 ha        1 SF1      0.127000
     36 HAN        -3.1980   -2.5410    5.7230 ha        1 SF1      0.128000
     37 HAP        -3.9880   -5.4070    2.5540 ha        1 SF1      0.151000
     38 HAL        -0.9400   -4.0370   -1.0660 ha        1 SF1      0.158000
     39 HAH         0.8960   -5.5340   -1.8460 ha        1 SF1      0.116500
     40 HAE         0.4610   -7.9610   -2.2500 ha        1 SF1      0.110000
     41 HAI        -1.8190   -8.8940   -1.8480 ha        1 SF1      0.116500
     42 HAM        -3.6370   -7.4200   -1.0000 ha        1 SF1      0.158000
@<TRIPOS>BOND
     1    1    2 ar  
     2    1    6 ar  
     3    1   28 1   
     4    2    3 ar  
     5    2   29 1   
     6    3    4 ar  
     7    3   30 1   
     8    4    5 ar  
     9    4   31 1   
    10    5    6 ar  
    11    5   32 1   
    12    6    7 1   
    13    7    8 1   
    14    7   33 1   
    15    7   34 1   
    16    8    9 1   
    17    8   13 1   
    18    9   10 1   
    19    9   20 2   
    20   10   11 1   
    21   10   12 1   
    22   13   14 ar  
    23   13   19 ar  
    24   14   15 ar  
    25   14   35 1   
    26   15   16 ar  
    27   15   36 1   
    28   16   17 1   
    29   16   18 ar  
    30   18   19 ar  
    31   18   37 1   
    32   19   20 1   
    33   20   21 1   
    34   21   22 1   
    35   22   23 ar  
    36   22   27 ar  
    37   23   24 ar  
    38   23   38 1   
    39   24   25 ar  
    40   24   39 1   
    41   25   26 ar  
    42   25   40 1   
    43   26   27 ar  
    44   26   41 1   
    45   27   42 1   
@<TRIPOS>SUBSTRUCTURE
     1 SF1         1 TEMP              0 ****  ****    0 ROOT
