@<TRIPOS>MOLECULE
molecule
   42    45     1     0     0
SMALL
bcc


@<TRIPOS>ATOM
      1 CAJ          0.0000     0.0000     0.0000 ca         1 SF1      -0.105500
      2 CAF          1.3820     0.0000     0.0000 ca         1 SF1      -0.150000
      3 CAD          2.0730     0.0000     1.1980 ca         1 SF1      -0.135000
      4 CAG          1.3820     0.0010     2.3940 ca         1 SF1      -0.150000
      5 CAK         -0.0000     0.0020     2.3950 ca         1 SF1      -0.105500
      6 CAU         -0.6910     0.0010     1.1960 ca         1 SF1      -0.108300
      7 CAQ         -2.1980     0.0010     1.1970 c3         1 SF1       0.090600
      8 NBA         -2.6870    -1.3800     1.1960 na         1 SF1      -0.038400
      9 CAX         -2.9480    -2.1350     0.0580 cc         1 SF1       0.030700
     10 CAS         -2.7830    -1.6940    -1.2760 c          1 SF1       0.879800
     11 OAB         -2.3390    -0.4440    -1.5250 o          1 SF1      -0.807800
     12 OAA         -3.0430    -2.4430    -2.2000 o          1 SF1      -0.807800
     13 CAZ         -2.9510    -2.1260     2.3220 ca         1 SF1      -0.046200
     14 CAO         -2.8520    -1.8490     3.6850 ca         1 SF1      -0.132000
     15 CAN         -3.1930    -2.8130     4.6070 ca         1 SF1      -0.130000
     16 CAT         -3.6350    -4.0630     4.1940 ca         1 SF1      -0.005600
     17 ClAC        -4.0580    -5.2610     5.3770 cl         1 SF1      -0.152400
     18 CAP         -3.7390    -4.3580     2.8630 ca         1 SF1      -0.077000
     19 CAY         -3.3990    -3.3940     1.9100 ca         1 SF1      -0.070800
     20 CAW         -3.3920    -3.3850     0.4440 cd         1 SF1      -0.096600
     21 SAR         -3.8560    -4.7110    -0.6190 ss         1 SF1      -0.127500
     22 CAV         -2.3010    -5.5210    -0.7950 ca         1 SF1       0.047900
     23 CAL         -1.1800    -5.0230    -0.1440 ca         1 SF1      -0.128000
     24 CAH          0.0380    -5.6600    -0.2850 ca         1 SF1      -0.121000
     25 CAE          0.1400    -6.7930    -1.0720 ca         1 SF1      -0.163000
     26 CAI         -0.9740    -7.2910    -1.7210 ca         1 SF1      -0.121000
     27 CAM         -2.1950    -6.6630    -1.5810 ca         1 SF1      -0.128000
     28 HAJ         -0.5420    -0.0000    -0.9380 ha         1 SF1       0.166000
     29 HAF          1.9240    -0.0000    -0.9380 ha         1 SF1       0.118500
     30 HAD          3.1560    -0.0000     1.1980 ha         1 SF1       0.111000
     31 HAG          1.9240     0.0010     3.3320 ha         1 SF1       0.118500
     32 HAK         -0.5420     0.0020     3.3330 ha         1 SF1       0.166000
     33 HAQ1        -2.5590     0.5110     2.0810 h1         1 SF1       0.083200
     34 HAQ2        -2.5590     0.5120     0.3120 h1         1 SF1       0.083200
     35 HAO         -2.5090    -0.8770     4.0170 ha         1 SF1       0.124000
     36 HAN         -3.1150    -2.5940     5.6650 ha         1 SF1       0.127000
     37 HAP         -4.0850    -5.3360     2.5480 ha         1 SF1       0.145000
     38 HAL         -1.2590    -4.1360     0.4720 ha         1 SF1       0.139500
     39 HAH          0.9130    -5.2730     0.2220 ha         1 SF1       0.115500
     40 HAE          1.0970    -7.2900    -1.1820 ha         1 SF1       0.109000
     41 HAI         -0.8900    -8.1800    -2.3340 ha         1 SF1       0.115500
     42 HAM         -3.0680    -7.0540    -2.0900 ha         1 SF1       0.139500
@<TRIPOS>BOND
     1     1     2 ar
     2     1     6 ar
     3     1    28 1
     4     2     3 ar
     5     2    29 1
     6     3     4 ar
     7     3    30 1
     8     4     5 ar
     9     4    31 1
    10     5     6 ar
    11     5    32 1
    12     6     7 1
    13     7     8 1
    14     7    33 1
    15     7    34 1
    16     8    13 1
    17     8     9 1
    18     9    10 1
    19     9    20 2
    20    10    12 1
    21    10    11 1
    22    13    14 ar
    23    13    19 ar
    24    14    15 ar
    25    14    35 1
    26    15    16 ar
    27    15    36 1
    28    16    17 1
    29    16    18 ar
    30    18    19 ar
    31    18    37 1
    32    19    20 1
    33    20    21 1
    34    21    22 1
    35    22    27 ar
    36    22    23 ar
    37    23    24 ar
    38    23    38 1
    39    24    25 ar
    40    24    39 1
    41    25    26 ar
    42    25    40 1
    43    26    27 ar
    44    26    41 1
    45    27    42 1
@<TRIPOS>SUBSTRUCTURE
     1 SF1         1 TEMP              0 ****  ****    0 ROOT
