@<TRIPOS>MOLECULE
SF2
   46    49     1     0     0
SMALL
bcc


@<TRIPOS>ATOM
      1 CAA        -0.2700    0.1580    0.8370 c3        1 SF2      0.115700
      2 OAR         1.1280    0.3580    0.6860 os        1 SF2     -0.311900
      3 CAW         1.9230   -0.0980    1.7240 ca        1 SF2      0.114100
      4 CAO         3.2880    0.2270    1.6070 ca        1 SF2     -0.117000
      5 CAJ         1.4450   -0.8390    2.8100 ca        1 SF2     -0.209000
      6 CAH         2.3440   -1.2570    3.7920 ca        1 SF2     -0.115000
      7 CAI         3.6950   -0.9430    3.6930 ca        1 SF2     -0.157000
      8 CAV         4.1670   -0.2050    2.5990 ca        1 SF2     -0.080300
      9 CAQ         5.6380    0.0920    2.4790 c3        1 SF2      0.079600
     10 NBC         5.9860    1.4810    2.5790 na        1 SF2     -0.058400
     11 CAZ         6.2420    2.3280    1.4980 cc        1 SF2      0.032700
     12 CAT         6.1260    1.7800    0.0640 c         1 SF2      0.924800
     13 OAB         5.0550    2.0420   -0.5420 o         1 SF2     -0.789300
     14 OAC         7.0680    1.0620   -0.3460 o         1 SF2     -0.789300
     15 CBB         6.1110    2.2120    3.7710 ca        1 SF2     -0.059200
     16 CAN         5.9550    1.8320    5.1080 ca        1 SF2     -0.129000
     17 CAM         6.1620    2.7900    6.0920 ca        1 SF2     -0.143000
     18 CAU         6.5170    4.1040    5.7460 ca        1 SF2     -0.005600
     19 CLAD        6.7580    5.2440    7.0000 cl        1 SF2     -0.147400
     20 CAP         6.6780    4.5080    4.4220 ca        1 SF2     -0.095000
     21 CBA         6.4770    3.5670    3.4150 ca        1 SF2     -0.028800
     22 CAY         6.5630    3.6190    1.9670 cd        1 SF2     -0.178600
     23 SAS         7.1080    4.9490    1.1290 ss        1 SF2     -0.087500
     24 CAX         5.7560    5.7550    0.4910 ca        1 SF2     -0.018100
     25 CAK         4.5720    5.1320    0.0800 ca        1 SF2     -0.118500
     26 CAF         3.5420    5.8860   -0.4800 ca        1 SF2     -0.134000
     27 CAE         3.6880    7.2620   -0.6540 ca        1 SF2     -0.156000
     28 CAG         4.8720    7.8850   -0.2630 ca        1 SF2     -0.134000
     29 CAL         5.8970    7.1390    0.3130 ca        1 SF2     -0.118500
     30 HAA1       -0.7040    0.6560   -0.0670 h1        1 SF2      0.035700
     31 HAA2       -0.6460    0.6420    1.7710 h1        1 SF2      0.035700
     32 HAA3       -0.5150   -0.9320    0.8390 h1        1 SF2      0.035700
     33 HAO         3.6510    0.8180    0.7410 ha        1 SF2      0.213000
     34 HAJ         0.3810   -1.0930    2.9020 ha        1 SF2      0.124000
     35 HAH         1.9750   -1.8370    4.6510 ha        1 SF2      0.118000
     36 HAI         4.3940   -1.2700    4.4760 ha        1 SF2      0.123000
     37 HAQ1        6.1960   -0.4660    3.2860 h1        1 SF2      0.081200
     38 HAQ2        5.9990   -0.2750    1.4680 h1        1 SF2      0.081200
     39 HAN         5.6700    0.8050    5.3730 ha        1 SF2      0.127000
     40 HAM         6.0430    2.5170    7.1500 ha        1 SF2      0.127000
     41 HAP         6.9550    5.5400    4.1650 ha        1 SF2      0.151000
     42 HAK         4.4720    4.0320    0.1700 ha        1 SF2      0.158500
     43 HAF         2.6170    5.3840   -0.7990 ha        1 SF2      0.117500
     44 HAE         2.8760    7.8520   -1.1000 ha        1 SF2      0.110000
     45 HAG         4.9970    8.9680   -0.4030 ha        1 SF2      0.117500
     46 HAL         6.8260    7.6340    0.6320 ha        1 SF2      0.158500
@<TRIPOS>BOND
     1    1    2 1   
     2    1   30 1   
     3    1   31 1   
     4    1   32 1   
     5    2    3 1   
     6    3    4 ar  
     7    3    5 ar  
     8    4    8 ar  
     9    4   33 1   
    10    5    6 ar  
    11    5   34 1   
    12    6    7 ar  
    13    6   35 1   
    14    7    8 ar  
    15    7   36 1   
    16    8    9 1   
    17    9   10 1   
    18    9   37 1   
    19    9   38 1   
    20   10   11 1   
    21   10   15 1   
    22   11   12 1   
    23   11   22 2   
    24   12   13 1   
    25   12   14 1   
    26   15   16 ar  
    27   15   21 ar  
    28   16   17 ar  
    29   16   39 1   
    30   17   18 ar  
    31   17   40 1   
    32   18   19 1   
    33   18   20 ar  
    34   20   21 ar  
    35   20   41 1   
    36   21   22 1   
    37   22   23 1   
    38   23   24 1   
    39   24   25 ar  
    40   24   29 ar  
    41   25   26 ar  
    42   25   42 1   
    43   26   27 ar  
    44   26   43 1   
    45   27   28 ar  
    46   27   44 1   
    47   28   29 ar  
    48   28   45 1   
    49   29   46 1   
@<TRIPOS>SUBSTRUCTURE
     1 SF2         1 TEMP              0 ****  ****    0 ROOT
