@<TRIPOS>MOLECULE
molecule
   46    49     1     0     0
SMALL
bcc


@<TRIPOS>ATOM
      1 CAA          0.0000     0.0000     0.0000 c3         1 SF2       0.131700
      2 OAR          1.4280     0.0000     0.0000 os         1 SF2      -0.315900
      3 CAW          2.0450     0.0000     1.2120 ca         1 SF2       0.121100
      4 CAO          3.4300     0.0060     1.2860 ca         1 SF2      -0.112000
      5 CAJ          1.2900    -0.0000     2.3760 ca         1 SF2      -0.226000
      6 CAH          1.9190    -0.0010     3.6050 ca         1 SF2      -0.117000
      7 CAI          3.3000    -0.0010     3.6770 ca         1 SF2      -0.161000
      8 CAV          4.0550     0.0050     2.5180 ca         1 SF2      -0.076300
      9 CAQ          5.5600     0.0120     2.6000 c3         1 SF2       0.091600
     10 NBC          6.0420     1.3940     2.6300 na         1 SF2      -0.038400
     11 CAZ          6.3610     2.1520     1.5100 cc         1 SF2       0.031700
     12 CAT          6.2700     1.7150     0.1670 c          1 SF2       0.879800
     13 OAB          5.8450     0.4640    -0.1090 o          1 SF2      -0.805800
     14 OAC          6.5770     2.4680    -0.7390 o          1 SF2      -0.805800
     15 CBB          6.2410     2.1380     3.7700 ca         1 SF2      -0.047200
     16 CAN          6.0690     1.8560     5.1240 ca         1 SF2      -0.132000
     17 CAM          6.3560     2.8190     6.0650 ca         1 SF2      -0.130000
     18 CAU          6.8140     4.0730     5.6800 ca         1 SF2      -0.005600
     19 ClAD         7.1680     5.2700     6.8880 cl         1 SF2      -0.152400
     20 CAP          6.9900     4.3720     4.3580 ca         1 SF2      -0.077000
     21 CBA          6.7060     3.4090     3.3860 ca         1 SF2      -0.069800
     22 CAY          6.7780     3.4050     1.9210 cd         1 SF2      -0.098600
     23 SAS          7.2930     4.7350     0.8880 ss         1 SF2      -0.126500
     24 CAX          5.7470     5.5400     0.6300 ca         1 SF2       0.047900
     25 CAK          4.5930     5.0350     1.2180 ca         1 SF2      -0.128000
     26 CAF          3.3830     5.6670     1.0140 ca         1 SF2      -0.121000
     27 CAE          3.3180     6.8010     0.2250 ca         1 SF2      -0.163000
     28 CAG          4.4650     7.3060    -0.3620 ca         1 SF2      -0.121000
     29 CAL          5.6790     6.6830    -0.1570 ca         1 SF2      -0.128000
     30 HAA1        -0.3610     0.8840     0.5110 h1         1 SF2       0.031367
     31 HAA2        -0.3610     0.0000    -1.0210 h1         1 SF2       0.031367
     32 HAA3        -0.3610    -0.8850     0.5110 h1         1 SF2       0.031367
     33 HAO          4.0220     0.0100     0.3780 ha         1 SF2       0.229000
     34 HAJ          0.2080     0.0000     2.3200 ha         1 SF2       0.118000
     35 HAH          1.3300    -0.0030     4.5150 ha         1 SF2       0.114000
     36 HAI          3.7910    -0.0020     4.6420 ha         1 SF2       0.118000
     37 HAQ1         5.8750    -0.5000     3.5010 h1         1 SF2       0.084700
     38 HAQ2         5.9700    -0.4950     1.7350 h1         1 SF2       0.084700
     39 HAN          5.7130     0.8820     5.4350 ha         1 SF2       0.124000
     40 HAM          6.2220     2.5970     7.1170 ha         1 SF2       0.127000
     41 HAP          7.3480     5.3510     4.0650 ha         1 SF2       0.145000
     42 HAK          4.6430     4.1460     1.8360 ha         1 SF2       0.139500
     43 HAF          2.4830     5.2740     1.4720 ha         1 SF2       0.115000
     44 HAE          2.3660     7.2940     0.0650 ha         1 SF2       0.109000
     45 HAG          4.4110     8.1960    -0.9770 ha         1 SF2       0.115000
     46 HAL          6.5760     7.0790    -0.6170 ha         1 SF2       0.139500
@<TRIPOS>BOND
     1     1     2 1
     2     1    30 1
     3     1    31 1
     4     1    32 1
     5     2     3 1
     6     3     5 ar
     7     3     4 ar
     8     4     8 ar
     9     4    33 1
    10     5     6 ar
    11     5    34 1
    12     6     7 ar
    13     6    35 1
    14     7     8 ar
    15     7    36 1
    16     8     9 1
    17     9    10 1
    18     9    37 1
    19     9    38 1
    20    10    15 1
    21    10    11 1
    22    11    22 2
    23    11    12 1
    24    12    14 1
    25    12    13 1
    26    15    16 ar
    27    15    21 ar
    28    16    17 ar
    29    16    39 1
    30    17    18 ar
    31    17    40 1
    32    18    19 1
    33    18    20 ar
    34    20    21 ar
    35    20    41 1
    36    21    22 1
    37    22    23 1
    38    23    24 1
    39    24    29 ar
    40    24    25 ar
    41    25    26 ar
    42    25    42 1
    43    26    27 ar
    44    26    43 1
    45    27    28 ar
    46    27    44 1
    47    28    29 ar
    48    28    45 1
    49    29    46 1
@<TRIPOS>SUBSTRUCTURE
     1 SF2         1 TEMP              0 ****  ****    0 ROOT
