@<TRIPOS>MOLECULE

    8    12     1     0     1 
SMALL
USER_CHARGES
@<TRIPOS>ATOM
  1 FE1    -0.595000   -1.020000   -1.174000 FT    1 SF4     0.6350 ****
  2 FE2     1.555000    0.490000   -0.344000 FT    1 SF4     0.6350 ****
  3 FE3     0.015000   -0.800000    1.456000 FB    1 SF4     0.6350 ****
  4 FE4    -0.985000    1.330000    0.096000 FB    1 SF4     0.6350 ****
  5 S1      0.005000    1.090000   -1.934000 ST    1 SF4    -0.5720 ****
  6 S2      1.285000   -1.790000   -0.104000 ST    1 SF4    -0.5720 ****
  7 S3     -2.065000   -0.670000    0.456000 SB    1 SF4    -0.5720 ****
  8 S4      0.785000    1.370000    1.546000 SB    1 SF4    -0.5720 ****
@<TRIPOS>BOND
    1     1     5 1
    2     1     6 1
    3     1     7 1
    4     2     6 1
    5     2     5 1
    6     2     8 1
    7     3     6 1
    8     3     7 1
    9     3     8 1
   10     4     5 1
   11     4     7 1
   12     4     8 1
@<TRIPOS>SUBSTRUCTURE
      1  SF4              1 ****               0 ****  **** 
