@<TRIPOS>MOLECULE
SF8
   52    51     1     0     0
SMALL
bcc


@<TRIPOS>ATOM
      1 C1           0.0000     0.0000     0.0000 c          1 SF8       0.984600
      2 C2           1.5070     0.0000     0.0000 c3         1 SF8      -0.148400
      3 C3           2.0170     0.0000     1.4430 c3         1 SF8       0.101800
      4 C4           3.5470     0.0010     1.4420 c3         1 SF8      -0.118400
      5 C5           4.0510    -0.1230     2.8570 c          1 SF8       0.570100
      6 N6           5.3750    -0.1440     3.1020 ns         1 SF8      -0.204900
      7 C7           5.8640    -0.2640     4.4780 c3         1 SF8      -0.085300
      8 C8           7.2670     0.3390     4.5760 c3         1 SF8      -0.019400
      9 C9           7.1940     1.8420     4.3020 c3         1 SF8      -0.056400
     10 C10          8.5970     2.4470     4.4000 c3         1 SF8       0.052000
     11 N11          8.5280     3.8860     4.1370 ns         1 SF8      -0.249900
     12 C12          9.6500     4.6320     4.1700 c          1 SF8       0.563100
     13 C13          9.5790     6.1130     3.9010 c3         1 SF8      -0.119400
     14 C14         10.9820     6.7170     3.9990 c3         1 SF8       0.099800
     15 C15         10.9100     8.2200     3.7250 c3         1 SF8      -0.146400
     16 C16         12.3030     8.7930     3.7000 c          1 SF8       0.982600
     17 O17         -0.6040     0.0050     1.0470 o          1 SF8      -0.921800
     18 O18         -0.6720     0.0000    -1.1620 o          1 SF8      -0.921800
     19 O19          1.5410     1.1660     2.1160 oh         1 SF8      -0.525800
     20 C20          1.5160    -1.2300     2.1530 c          1 SF8       1.031600
     21 O21          0.8210    -1.1200     3.1350 o          1 SF8      -0.906800
     22 O22          1.8400    -2.4490     1.6940 o          1 SF8      -0.906800
     23 O23          3.2630    -0.2040     3.7760 o          1 SF8      -0.583100
     24 C24          5.9150    -1.7200     4.8670 c          1 SF8       0.977600
     25 O25          6.3360    -2.0720     6.0920 o          1 SF8      -0.907300
     26 O26          5.5790    -2.5680     4.0760 o          1 SF8      -0.907300
     27 O27         10.7170     4.1110     4.4160 o          1 SF8      -0.584100
     28 C28         11.8820     6.0640     2.9820 c          1 SF8       1.027600
     29 O29         11.5050     6.4960     5.3100 oh         1 SF8      -0.525800
     30 O30         12.8710     5.4700     3.3420 o          1 SF8      -0.905300
     31 O31         11.5860     6.1420     1.6750 o          1 SF8      -0.905300
     32 O32         13.2560     8.0740     3.8820 o          1 SF8      -0.914800
     33 O33         12.4860    10.1050     3.4750 o          1 SF8      -0.914800
     34 H2           1.8680     0.8840    -0.5110 hc         1 SF8      -0.004800
     35 H2A          1.8680    -0.8840    -0.5110 hc         1 SF8      -0.004800
     36 H4           3.9070     0.9270     1.0100 hc         1 SF8       0.006200
     37 H4A          3.9080    -0.8350     0.8550 hc         1 SF8       0.006200
     38 HN6          6.0250    -0.1180     2.3400 hn         1 SF8       0.143500
     39 H7           5.1960     0.2650     5.1460 h1         1 SF8       0.049700
     40 H8           7.9140    -0.1310     3.8450 hc         1 SF8       0.018200
     41 H8A          7.6630     0.1720     5.5700 hc         1 SF8       0.018200
     42 H9           6.7980     2.0100     3.3080 hc         1 SF8       0.013200
     43 H9A          6.5470     2.3120     5.0330 hc         1 SF8       0.013200
     44 H10          9.2440     1.9770     3.6690 h1         1 SF8       0.014200
     45 H10A         8.9940     2.2800     5.3940 h1         1 SF8       0.014200
     46 HN11         7.6440     4.3200     3.9540 hn         1 SF8       0.160500
     47 H13          8.9310     6.5830     4.6310 hc         1 SF8       0.011700
     48 H13A         9.1830     6.2800     2.9060 hc         1 SF8       0.011700
     49 H15         10.4320     8.3900     2.7680 hc         1 SF8      -0.004800
     50 H15A        10.3350     8.7030     4.5060 hc         1 SF8      -0.004800
     51 HO19         1.8470     1.9360     1.6670 ho         1 SF8       0.311000
     52 HO29        10.9860     6.9690     5.9400 ho         1 SF8       0.314000
@<TRIPOS>BOND
     1     1     2 1   
     2     1    17 1   
     3     1    18 1   
     4     2     3 1   
     5     2    34 1   
     6     2    35 1   
     7     3     4 1   
     8     3    19 1   
     9     3    20 1   
    10     4     5 1   
    11     4    36 1   
    12     4    37 1   
    13     5     6 1   
    14     5    23 2   
    15     6     7 1   
    16     6    38 1   
    17     7     8 1   
    18     7    24 1   
    19     7    39 1   
    20     8     9 1   
    21     8    40 1   
    22     8    41 1   
    23     9    10 1   
    24     9    42 1   
    25     9    43 1   
    26    10    11 1   
    27    10    44 1   
    28    10    45 1   
    29    11    12 1   
    30    11    46 1   
    31    12    13 1   
    32    12    27 2   
    33    13    14 1   
    34    13    47 1   
    35    13    48 1   
    36    14    15 1   
    37    14    28 1   
    38    14    29 1   
    39    15    16 1   
    40    15    49 1   
    41    15    50 1   
    42    16    32 1   
    43    16    33 1   
    44    19    51 1   
    45    20    21 1   
    46    20    22 1   
    47    24    25 1   
    48    24    26 1   
    49    28    30 1   
    50    28    31 1   
    51    29    52 1   
@<TRIPOS>SUBSTRUCTURE
     1 SF8         1 TEMP              0 ****  ****    0 ROOT
