@<TRIPOS>MOLECULE
SFF
   41    43     1     0     0
SMALL
bcc


@<TRIPOS>ATOM
      1 C15          0.0000     0.0000     0.0000 c3         1 SFF      -0.039400
      2 C16          1.5300     0.0000     0.0000 c3         1 SFF      -0.015900
      3 C17          2.0400     0.0000     1.4430 c3         1 SFF      -0.028400
      4 C18          1.5300     1.2490     2.1630 c3         1 SFF      -0.015900
      5 C19          0.0010     1.2490     2.1640 c3         1 SFF      -0.039400
      6 C14         -0.5100     1.2490     0.7220 c3         1 SFF       0.139500
      7 N13         -1.9750     1.2480     0.7220 nu         1 SFF      -0.426200
      8 C8          -2.6620     2.4330     0.8260 c2         1 SFF       0.790500
      9 O7          -3.9920     2.3470     0.8180 os         1 SFF      -0.441400
     10 C3          -4.8030     3.4760     0.5010 c3         1 SFF       0.239100
     11 C2          -6.2710     3.1370     0.7800 c3         1 SFF      -0.025400
     12 C1          -6.4220     2.7070     2.2410 c3         1 SFF      -0.027400
     13 C6          -5.9840     3.8490     3.1590 c3         1 SFF      -0.025400
     14 C5          -4.5240     4.2060     2.8730 c3         1 SFF       0.011600
     15 C4          -4.3740     4.6490     1.4020 c3         1 SFF      -0.112900
     16 S10         -2.6250     5.0100     1.0560 sy         1 SFF       1.032400
     17 O11         -2.4730     5.5610    -0.2460 o          1 SFF      -0.573300
     18 O12         -2.0030     5.6090     2.1830 o          1 SFF      -0.573300
     19 N9          -1.9480     3.4980     0.9230 ne         1 SFF      -0.744300
     20 H1          -0.3600    -0.8840     0.5130 hc         1 SFF       0.020200
     21 H2          -0.3600     0.0030    -1.0220 hc         1 SFF       0.020200
     22 H3           1.8900     0.8860    -0.5090 hc         1 SFF       0.018450
     23 H4           1.8900    -0.8860    -0.5090 hc         1 SFF       0.018450
     24 H5           3.1230     0.0020     1.4420 hc         1 SFF       0.013700
     25 H6           1.6760    -0.8840     1.9530 hc         1 SFF       0.013700
     26 H7           1.8900     2.1320     1.6500 hc         1 SFF       0.018450
     27 H8           1.8910     1.2470     3.1850 hc         1 SFF       0.018450
     28 H9          -0.3590     0.3620     2.6730 hc         1 SFF       0.020200
     29 H10         -0.3590     2.1350     2.6740 hc         1 SFF       0.020200
     30 H11         -0.1450     2.1330     0.2120 h1         1 SFF       0.075700
     31 H12         -2.4750     0.3870     0.6200 hn         1 SFF       0.289800
     32 H13         -4.6760     3.7430    -0.5410 h1         1 SFF       0.035700
     33 H14         -6.5840     2.3270     0.1320 hc         1 SFF       0.028200
     34 H15         -6.8840     4.0110     0.5970 hc         1 SFF       0.028200
     35 H16         -7.4590     2.4640     2.4390 hc         1 SFF       0.021200
     36 H17         -5.8010     1.8390     2.4260 hc         1 SFF       0.021200
     37 H18         -6.6080     4.7160     2.9780 hc         1 SFF       0.017700
     38 H19         -6.0820     3.5380     4.1920 hc         1 SFF       0.017700
     39 H20         -4.2180     5.0160     3.5240 hc         1 SFF       0.032700
     40 H21         -3.9010     3.3380     3.0520 hc         1 SFF       0.032700
     41 H22         -4.9860     5.5200     1.2050 h1         1 SFF       0.092700
@<TRIPOS>BOND
     1     1     2 1   
     2     1     6 1   
     3     1    20 1   
     4     1    21 1   
     5     2     3 1   
     6     2    22 1   
     7     2    23 1   
     8     3     4 1   
     9     3    24 1   
    10     3    25 1   
    11     4     5 1   
    12     4    26 1   
    13     4    27 1   
    14     5     6 1   
    15     5    28 1   
    16     5    29 1   
    17     6     7 1   
    18     6    30 1   
    19     7     8 1   
    20     7    31 1   
    21     8     9 1   
    22     8    19 2   
    23     9    10 1   
    24    10    11 1   
    25    10    15 1   
    26    10    32 1   
    27    11    12 1   
    28    11    33 1   
    29    11    34 1   
    30    12    13 1   
    31    12    35 1   
    32    12    36 1   
    33    13    14 1   
    34    13    37 1   
    35    13    38 1   
    36    14    15 1   
    37    14    39 1   
    38    14    40 1   
    39    15    16 1   
    40    15    41 1   
    41    16    17 2   
    42    16    18 2   
    43    16    19 1   
@<TRIPOS>SUBSTRUCTURE
     1 SFF         1 TEMP              0 ****  ****    0 ROOT
