@<TRIPOS>MOLECULE
SFG
   51    53     1     0     0
SMALL
bcc


@<TRIPOS>ATOM
      1 N            0.0000     0.0000     0.0000 nz         1 SFG       0.078400
      2 CA           1.4690     0.0000     0.0000 c3         1 SFG      -0.200500
      3 C            1.9720     0.0000     1.4220 c          1 SFG       0.939600
      4 O            1.2460     0.3570     2.3190 o          1 SFG      -0.784800
      5 OXT          3.2260    -0.3970     1.6900 o          1 SFG      -0.784800
      6 CB           1.9780     1.2490    -0.7210 c3         1 SFG      -0.029400
      7 CG           1.5740     1.1890    -2.1950 c3         1 SFG      -0.064400
      8 CD           2.0830     2.4380    -2.9160 c3         1 SFG      -0.062500
      9 NE           1.4060     3.6260    -2.3760 nz         1 SFG       0.046400
     10 C5'          1.7880     2.3200    -4.4120 c3         1 SFG      -0.049400
     11 C4'          2.4060     3.5090    -5.1500 c3         1 SFG       0.149100
     12 O4'          3.8400     3.4400    -5.0730 os         1 SFG      -0.416600
     13 C3'          2.0240     3.4570    -6.6430 c3         1 SFG       0.131100
     14 O3'          1.2980     4.6290    -7.0140 oh         1 SFG      -0.546800
     15 C2'          3.3830     3.4050    -7.3800 c3         1 SFG       0.132100
     16 O2'          3.3630     4.2350    -8.5430 oh         1 SFG      -0.525800
     17 C1'          4.3550     3.9720    -6.3130 c3         1 SFG       0.176800
     18 N9           5.7190     3.4950    -6.5520 na         1 SFG       0.176000
     19 C8           6.2800     2.3650    -6.0370 cc         1 SFG       0.240700
     20 N7           7.5070     2.2480    -6.4560 nd         1 SFG      -0.453100
     21 C5           7.8100     3.2920    -7.2640 ca         1 SFG      -0.188200
     22 C6           8.9500     3.6860    -7.9840 ca         1 SFG       0.615200
     23 N6          10.1060     2.9250    -7.9520 nv         1 SFG      -0.644500
     24 N1           8.8930     4.8060    -8.6970 nb         1 SFG      -0.645000
     25 C2           7.7950     5.5380    -8.7340 ca         1 SFG       0.658900
     26 N3           6.7040     5.2090    -8.0750 nb         1 SFG      -0.621000
     27 C4           6.6650     4.1010    -7.3400 ca         1 SFG       0.240800
     28 HN1         -0.3340    -0.5200     0.7880 hn         1 SFG       0.214467
     29 HN2         -0.3340     0.9420     0.0560 hn         1 SFG       0.214467
     30 HA           1.8300    -0.8840    -0.5110 hx         1 SFG       0.101700
     31 HB1          3.0580     1.2960    -0.6440 hc         1 SFG       0.051700
     32 HB2          1.5460     2.1310    -0.2640 hc         1 SFG       0.051700
     33 HG1          2.0060     0.3070    -2.6520 hc         1 SFG       0.040700
     34 HG2          0.4940     1.1420    -2.2720 hc         1 SFG       0.040700
     35 HD           3.1520     2.5320    -2.7650 hx         1 SFG       0.122700
     36 HNE1         1.7910     4.4490    -2.7950 hn         1 SFG       0.234133
     37 HNE2         0.4280     3.5740    -2.5800 hn         1 SFG       0.234133
     38 H5'1         2.2120     1.3990    -4.7920 hc         1 SFG       0.057200
     39 H5'2         0.7160     2.3160    -4.5690 hc         1 SFG       0.057200
     40 H4'          2.0610     4.4390    -4.7160 h1         1 SFG       0.015700
     41 H3'          1.4470     2.5640    -6.8530 h1         1 SFG       0.018700
     42 HO3'         0.4880     4.3800    -7.4280 ho         1 SFG       0.404000
     43 H2'          3.6440     2.3840    -7.6310 h1         1 SFG       0.031700
     44 HO2'         3.1550     3.7110    -9.2990 ho         1 SFG       0.403000
     45 H1'          4.3180     5.0550    -6.3040 h2         1 SFG       0.077700
     46 H8           5.7800     1.6680    -5.3760 h5         1 SFG       0.026800
     47 HN61        10.2550     2.2130    -8.6390 hn         1 SFG       0.289300
     48 HN62        10.8100     3.1140    -7.2670 hn         1 SFG       0.289300
     49 H2           7.7920     6.4440    -9.3280 h5         1 SFG       0.006100
     50 HN3         -0.3340    -0.4180    -0.8460 hn         1 SFG       0.214467
     51 HE3          1.5210     3.6520    -1.3820 hn         1 SFG       0.234133
@<TRIPOS>BOND
     1     1     2 1   
     2     1    28 1   
     3     1    29 1   
     4     1    50 1   
     5     2     3 1   
     6     2     6 1   
     7     2    30 1   
     8     3     4 1   
     9     3     5 1   
    10     6     7 1   
    11     6    31 1   
    12     6    32 1   
    13     7     8 1   
    14     7    33 1   
    15     7    34 1   
    16     8     9 1   
    17     8    10 1   
    18     8    35 1   
    19     9    36 1   
    20     9    37 1   
    21     9    51 1   
    22    10    11 1   
    23    10    38 1   
    24    10    39 1   
    25    11    12 1   
    26    11    13 1   
    27    11    40 1   
    28    12    17 1   
    29    13    14 1   
    30    13    15 1   
    31    13    41 1   
    32    14    42 1   
    33    15    16 1   
    34    15    17 1   
    35    15    43 1   
    36    16    44 1   
    37    17    18 1   
    38    17    45 1   
    39    18    19 1   
    40    18    27 1   
    41    19    20 2   
    42    19    46 1   
    43    20    21 1   
    44    21    22 ar  
    45    21    27 ar  
    46    22    23 1   
    47    22    24 ar  
    48    23    47 1   
    49    23    48 1   
    50    24    25 ar  
    51    25    26 ar  
    52    25    49 1   
    53    26    27 ar  
@<TRIPOS>SUBSTRUCTURE
     1 SFG         1 TEMP              0 ****  ****    0 ROOT
