@<TRIPOS>MOLECULE
molecule
   40    42     1     0     0
SMALL
bcc


@<TRIPOS>ATOM
      1 F            0.0000     0.0000     0.0000 f          1 SFI      -0.155900
      2 S            3.1360    -0.9350    -7.9010 ss         1 SFI      -0.280000
      3 C1           4.9280     0.0000     0.6920 cc         1 SFI       0.033600
      4 O1           5.1860     1.6750     4.0060 o          1 SFI      -0.837800
      5 C2           3.6370     0.0000     0.0000 ca         1 SFI       0.005200
      6 O2           4.8780     2.3360     1.9200 o          1 SFI      -0.837800
      7 C3           5.9290    -0.0010    -0.2090 cd         1 SFI      -0.147200
      8 C4           3.8850    -0.0010    -1.3900 ca         1 SFI      -0.107800
      9 C5           5.3530    -0.0020    -1.5580 cd         1 SFI       0.034800
     10 C6           5.1080     0.0070     2.1870 c3         1 SFI      -0.149200
     11 C7           2.3160     0.0010     0.4590 ca         1 SFI      -0.131000
     12 C8           2.8210    -0.0010    -2.2860 ca         1 SFI      -0.093000
     13 C9           6.0440    -0.0030    -2.7490 ce         1 SFI      -0.134200
     14 C10          7.4010    -0.0020     0.1150 c3         1 SFI      -0.018900
     15 C11          1.2740    -0.0000    -0.4460 ca         1 SFI       0.122900
     16 C12          1.5250    -0.0010    -1.8130 ca         1 SFI      -0.192000
     17 C13          5.3330    -0.2310    -4.0070 ca         1 SFI      -0.041800
     18 C14          5.0490     1.4240     2.6940 c          1 SFI       0.893600
     19 C15          5.6040     0.5760    -5.1240 ca         1 SFI      -0.104500
     20 C16          4.3850    -1.2590    -4.1040 ca         1 SFI      -0.104500
     21 C17          4.9390     0.3590    -6.2970 ca         1 SFI      -0.136500
     22 C18          3.7240    -1.4680    -5.2810 ca         1 SFI      -0.136500
     23 C19          3.9910    -0.6600    -6.3850 ca         1 SFI       0.030900
     24 C20          2.0460    -2.3310    -7.5080 c3         1 SFI      -0.015000
     25 H6           4.3190    -0.5750     2.6490 hc         1 SFI       0.044700
     26 H6A          6.0690    -0.4270     2.4380 hc         1 SFI       0.044700
     27 H7           2.1110    -0.0710     1.5200 ha         1 SFI       0.157000
     28 H8           3.0100    -0.0020    -3.3530 ha         1 SFI       0.143000
     29 H9           7.1270    -0.0020    -2.7400 ha         1 SFI       0.139000
     30 H10          7.7290     1.0130     0.3070 hc         1 SFI       0.037700
     31 H10A         7.9560    -0.4080    -0.7220 hc         1 SFI       0.037700
     32 H10B         7.5770    -0.6100     0.9940 hc         1 SFI       0.037700
     33 H12          0.6970     0.0030    -2.5120 ha         1 SFI       0.128000
     34 H15          6.3400     1.3670    -5.0560 ha         1 SFI       0.143500
     35 H16          4.1760    -1.8870    -3.2460 ha         1 SFI       0.143500
     36 H17          5.1460     0.9810    -7.1590 ha         1 SFI       0.130500
     37 H18          2.9910    -2.2620    -5.3560 ha         1 SFI       0.130500
     38 H20          2.6420    -3.1710    -7.1710 h1         1 SFI       0.062033
     39 H20A         1.4890    -2.6140    -8.3930 h1         1 SFI       0.062033
     40 H20B         1.3560    -2.0410    -6.7240 h1         1 SFI       0.062033
@<TRIPOS>BOND
     1     1    15 1
     2     2    23 1
     3     2    24 1
     4     3     5 1
     5     3     7 2
     6     3    10 1
     7     4    18 1
     8     5     8 ar
     9     5    11 ar
    10     6    18 1
    11     7     9 1
    12     7    14 1
    13     8     9 1
    14     8    12 ar
    15     9    13 2
    16    10    18 1
    17    11    15 ar
    18    12    16 ar
    19    13    17 1
    20    15    16 ar
    21    17    19 ar
    22    17    20 ar
    23    19    21 ar
    24    20    22 ar
    25    21    23 ar
    26    22    23 ar
    27    10    25 1
    28    10    26 1
    29    11    27 1
    30    12    28 1
    31    13    29 1
    32    14    30 1
    33    14    31 1
    34    14    32 1
    35    16    33 1
    36    19    34 1
    37    20    35 1
    38    21    36 1
    39    22    37 1
    40    24    38 1
    41    24    39 1
    42    24    40 1
@<TRIPOS>SUBSTRUCTURE
     1 SFI         1 TEMP              0 ****  ****    0 ROOT
