@<TRIPOS>MOLECULE
SFI
   40    42     1     0     0
SMALL
bcc


@<TRIPOS>ATOM
      1 F          -0.0620    0.0020    0.6870 f         1 SFI     -0.157900
      2 S           3.4700   -0.8920   -8.1700 ss        1 SFI     -0.194000
      3 C1          4.9150    0.0950    0.8420 cc        1 SFI      0.020600
      4 O1          4.8240    2.3120    3.2600 o         1 SFI     -0.828800
      5 C2          3.5490    0.0210    0.2840 ca        1 SFI     -0.012800
      6 O2          6.9170    1.7960    2.6570 o         1 SFI     -0.828800
      7 C3          5.8070    0.0780   -0.2030 cd        1 SFI     -0.131200
      8 C4          3.6510   -0.0840   -1.1460 ca        1 SFI     -0.095800
      9 C5          5.0840   -0.0610   -1.4950 cd        1 SFI      0.027800
     10 C6          5.2010    0.1430    2.2760 c3        1 SFI     -0.181200
     11 C7          2.3200    0.0580    0.9090 ca        1 SFI     -0.137000
     12 C8          2.5090   -0.1450   -1.9190 ca        1 SFI     -0.091000
     13 C9          5.6900   -0.1380   -2.6890 ce        1 SFI     -0.133200
     14 C10         7.2650    0.1920   -0.1020 c3        1 SFI     -0.057900
     15 C11         1.1610   -0.0210    0.0980 ca        1 SFI      0.116900
     16 C12         1.2540   -0.1200   -1.2970 ca        1 SFI     -0.196000
     17 C13         5.0830   -0.3410   -3.9940 ca        1 SFI     -0.033800
     18 C14         5.6850    1.5430    2.7580 c         1 SFI      0.926600
     19 C15         5.3560    0.5650   -5.0330 ca        1 SFI     -0.111000
     20 C16         4.2830   -1.4570   -4.2670 ca        1 SFI     -0.111000
     21 C17         4.8330    0.3610   -6.3040 ca        1 SFI     -0.134000
     22 C18         3.7650   -1.6640   -5.5440 ca        1 SFI     -0.134000
     23 C19         4.0330   -0.7590   -6.5730 ca        1 SFI     -0.012100
     24 C20         2.4710   -2.3270   -8.2060 c3        1 SFI     -0.063000
     25 H6          4.2880   -0.1270    2.8650 hc        1 SFI      0.042200
     26 H6A         6.0160   -0.5880    2.5190 hc        1 SFI      0.042200
     27 H7          2.2310    0.1720    1.9990 ha        1 SFI      0.169000
     28 H8          2.5690   -0.2040   -3.0160 ha        1 SFI      0.136000
     29 H9          6.7930   -0.0380   -2.7240 ha        1 SFI      0.136000
     30 H10         7.5440    0.6020    0.9090 hc        1 SFI      0.052700
     31 H10A        7.6630    0.8850   -0.8850 hc        1 SFI      0.052700
     32 H10B        7.7500   -0.8070   -0.2420 hc        1 SFI      0.052700
     33 H12         0.3380   -0.1700   -1.9010 ha        1 SFI      0.131000
     34 H15         5.9840    1.4460   -4.8320 ha        1 SFI      0.142000
     35 H16         4.0620   -2.1750   -3.4620 ha        1 SFI      0.142000
     36 H17         5.0460    1.0820   -7.1080 ha        1 SFI      0.129000
     37 H18         3.1420   -2.5510   -5.7320 ha        1 SFI      0.129000
     38 H20         1.6090   -2.2630   -7.5050 h1        1 SFI      0.065033
     39 H20A        3.0450   -3.2510   -7.9740 h1        1 SFI      0.065033
     40 H20B        2.0850   -2.3940   -9.2510 h1        1 SFI      0.065033
@<TRIPOS>BOND
     1    1   15 1   
     2    2   23 1   
     3    2   24 1   
     4    3    5 1   
     5    3    7 2   
     6    3   10 1   
     7    4   18 1   
     8    5    8 ar  
     9    5   11 ar  
    10    6   18 1   
    11    7    9 1   
    12    7   14 1   
    13    8    9 1   
    14    8   12 ar  
    15    9   13 2   
    16   10   18 1   
    17   10   25 1   
    18   10   26 1   
    19   11   15 ar  
    20   11   27 1   
    21   12   16 ar  
    22   12   28 1   
    23   13   17 1   
    24   13   29 1   
    25   14   30 1   
    26   14   31 1   
    27   14   32 1   
    28   15   16 ar  
    29   16   33 1   
    30   17   19 ar  
    31   17   20 ar  
    32   19   21 ar  
    33   19   34 1   
    34   20   22 ar  
    35   20   35 1   
    36   21   23 ar  
    37   21   36 1   
    38   22   23 ar  
    39   22   37 1   
    40   24   38 1   
    41   24   39 1   
    42   24   40 1   
@<TRIPOS>SUBSTRUCTURE
     1 SFI         1 TEMP              0 ****  ****    0 ROOT
