@<TRIPOS>MOLECULE
molecule
   38    38     1     0     0
SMALL
bcc


@<TRIPOS>ATOM
      1 CAA          0.0000     0.0000     0.0000 c3         1 SFJ      -0.174100
      2 CAK          3.8600     4.1550     3.9340 c3         1 SFJ       0.092400
      3 CAN          1.5080     0.0000     0.0000 c          1 SFJ       0.650100
      4 CAO          5.6080    -1.5840     3.5940 c          1 SFJ       0.852600
      5 CAQ          3.7020     2.0590     2.5830 c3         1 SFJ       0.167100
      6 CAR          4.1580    -1.4390     1.0410 c3         1 SFJ       0.108100
      7 CAS          5.6880    -1.4320     1.1190 c3         1 SFJ       0.110600
      8 CAT          3.6470    -0.0010     1.1670 c3         1 SFJ       0.080700
      9 CAU          4.1600     0.6020     2.4770 c3         1 SFJ       0.156100
     10 CAV          6.1220    -0.7740     2.4310 c3         1 SFJ       0.256100
     11 NAL          2.1820     0.0000     1.1670 ns         1 SFJ      -0.580900
     12 OAB          2.1140    -0.0000    -1.0500 o          1 SFJ      -0.586100
     13 OAD          4.5250     4.7850     5.0310 oh         1 SFJ      -0.612800
     14 OAE          5.1140    -1.0280     4.5460 o          1 SFJ      -0.810800
     15 OAF          3.8940     1.9810     4.9900 oh         1 SFJ      -0.587800
     16 OAG          4.1260     2.7760     1.4210 oh         1 SFJ      -0.584800
     17 OAH          3.7450    -1.9850    -0.2130 oh         1 SFJ      -0.585800
     18 OAM          5.5870     0.5490     2.4980 os         1 SFJ      -0.412600
     19 FAI          6.2090    -0.7120     0.0390 f          1 SFJ      -0.245300
     20 OAC          5.6990    -2.9220     3.5720 o          1 SFJ      -0.810800
     21 CAP          4.3180     2.6980     3.8290 c3         1 SFJ       0.139100
     22 H1          -0.3610    -0.8360     0.5870 hc         1 SFJ       0.050700
     23 H2          -0.3610     0.9260     0.4300 hc         1 SFJ       0.050700
     24 H3          -0.3610    -0.0910    -1.0170 hc         1 SFJ       0.050700
     25 H6           2.6210     2.0940     2.6550 h1         1 SFJ       0.032700
     26 H7           3.7580    -2.0360     1.8510 h1         1 SFJ       0.072700
     27 H8           6.0540    -2.4520     1.0900 h1         1 SFJ       0.090700
     28 H9           4.0130     0.5860     0.3340 h1         1 SFJ       0.113700
     29 H10          3.7670     0.0350     3.3120 h1         1 SFJ       0.109700
     30 H11          1.6810    -0.0010     2.0340 hn         1 SFJ       0.307500
     31 H12          4.2710     5.6920     5.0730 ho         1 SFJ       0.394000
     32 H13          4.2850     2.3650     5.7580 ho         1 SFJ       0.415000
     33 H14          3.4250     3.3310     1.1200 ho         1 SFJ       0.387000
     34 H15          3.7520    -2.9260    -0.1630 ho         1 SFJ       0.392000
     35 H17          5.3980     2.6630     3.7570 h1         1 SFJ       0.088700
     36 H4           4.1040     4.6760     3.0160 h1         1 SFJ       0.021700
     37 FAJ          7.5190    -0.7170     2.4850 f          1 SFJ      -0.216300
     38 H5           2.7890     4.1860     4.0940 h1         1 SFJ       0.021700
@<TRIPOS>BOND
     1    13     2 1
     2     2    21 1
     3    16     5 1
     4    12     3 2
     5    21     5 1
     6    21    15 1
     7     5     9 1
     8     3     1 1
     9     3    11 1
    10     9     8 1
    11     9    18 1
    12    11     8 1
    13     8     6 1
    14    18    10 1
    15    19     7 1
    16    37    10 1
    17    10     7 1
    18    10     4 1
    19     6     7 1
    20     6    17 1
    21    14     4 1
    22     4    20 1
    23     1    22 1
    24     1    23 1
    25     1    24 1
    26     2    36 1
    27     2    38 1
    28     5    25 1
    29     6    26 1
    30     7    27 1
    31     8    28 1
    32     9    29 1
    33    11    30 1
    34    13    31 1
    35    15    32 1
    36    16    33 1
    37    17    34 1
    38    21    35 1
@<TRIPOS>SUBSTRUCTURE
     1 SFJ         1 TEMP              0 ****  ****    0 ROOT
