@<TRIPOS>MOLECULE
SFJ
   38    38     1     0     0
SMALL
bcc


@<TRIPOS>ATOM
      1 CAA          0.0000     0.0000     0.0000 c3         1 SFJ      -0.071100
      2 CAK          3.8600     4.1550     3.9340 c3         1 SFJ       0.172400
      3 CAN          1.5080     0.0000     0.0000 c          1 SFJ       0.559100
      4 CAO          5.6080    -1.5840     3.5940 c          1 SFJ       0.932600
      5 CAQ          3.7020     2.0590     2.5830 c3         1 SFJ       0.190100
      6 CAR          4.1580    -1.4390     1.0410 c3         1 SFJ       0.148100
      7 CAS          5.6880    -1.4320     1.1190 c3         1 SFJ       0.115600
      8 CAT          3.6470    -0.0010     1.1670 c3         1 SFJ      -0.036300
      9 CAU          4.1600     0.6020     2.4770 c3         1 SFJ       0.163100
     10 CAV          6.1220    -0.7740     2.4310 c3         1 SFJ       0.252100
     11 NAL          2.1820     0.0000     1.1670 ns         1 SFJ      -0.182900
     12 OAB          2.1140    -0.0000    -1.0500 o          1 SFJ      -0.628100
     13 OAD          4.5250     4.7850     5.0310 oh         1 SFJ      -0.592800
     14 OAE          5.1140    -1.0280     4.5460 o          1 SFJ      -0.857800
     15 OAF          3.8940     1.9810     4.9900 oh         1 SFJ      -0.567800
     16 OAG          4.1260     2.7760     1.4210 oh         1 SFJ      -0.565800
     17 OAH          3.7450    -1.9850    -0.2130 oh         1 SFJ      -0.565800
     18 OAM          5.5870     0.5490     2.4980 os         1 SFJ      -0.385600
     19 FAI          6.2090    -0.7120     0.0390 f          1 SFJ      -0.233300
     20 OAC          5.6990    -2.9220     3.5720 o          1 SFJ      -0.857800
     21 CAP          4.3180     2.6980     3.8290 c3         1 SFJ       0.161100
     22 H1          -0.3610    -0.8360     0.5870 hc         1 SFJ       0.014033
     23 H2          -0.3610     0.9260     0.4300 hc         1 SFJ       0.014033
     24 H3          -0.3610    -0.0910    -1.0170 hc         1 SFJ       0.014033
     25 H6           2.6210     2.0940     2.6550 h1         1 SFJ      -0.003300
     26 H7           3.7580    -2.0360     1.8510 h1         1 SFJ       0.047700
     27 H8           6.0540    -2.4520     1.0900 h1         1 SFJ       0.065700
     28 H9           4.0130     0.5860     0.3340 h1         1 SFJ       0.091700
     29 H10          3.7670     0.0350     3.3120 h1         1 SFJ       0.088700
     30 H11          1.6810    -0.0010     2.0340 hn         1 SFJ       0.169500
     31 H12          4.2710     5.6920     5.0730 ho         1 SFJ       0.381000
     32 H13          4.2850     2.3650     5.7580 ho         1 SFJ       0.400000
     33 H14          3.4250     3.3310     1.1200 ho         1 SFJ       0.372000
     34 H15          3.7520    -2.9260    -0.1630 ho         1 SFJ       0.380000
     35 H17          5.3980     2.6630     3.7570 h1         1 SFJ       0.052700
     36 H4           4.1040     4.6760     3.0160 h1         1 SFJ      -0.011300
     37 FAJ          7.5190    -0.7170     2.4850 f          1 SFJ      -0.214300
     38 H5           2.7890     4.1860     4.0940 h1         1 SFJ      -0.011300
@<TRIPOS>BOND
     1     1     3 1   
     2     1    22 1   
     3     1    23 1   
     4     1    24 1   
     5     2    13 1   
     6     2    21 1   
     7     2    36 1   
     8     2    38 1   
     9     3    11 1   
    10     3    12 2   
    11     4    10 1   
    12     4    14 1   
    13     4    20 1   
    14     5     9 1   
    15     5    16 1   
    16     5    21 1   
    17     5    25 1   
    18     6     7 1   
    19     6     8 1   
    20     6    17 1   
    21     6    26 1   
    22     7    10 1   
    23     7    19 1   
    24     7    27 1   
    25     8     9 1   
    26     8    11 1   
    27     8    28 1   
    28     9    18 1   
    29     9    29 1   
    30    10    18 1   
    31    10    37 1   
    32    11    30 1   
    33    13    31 1   
    34    15    21 1   
    35    15    32 1   
    36    16    33 1   
    37    17    34 1   
    38    21    35 1   
@<TRIPOS>SUBSTRUCTURE
     1 SFJ         1 TEMP              0 ****  ****    0 ROOT
