@<TRIPOS>MOLECULE
molecule
   39    39     1     0     0
SMALL
bcc


@<TRIPOS>ATOM
      1 CAR          0.0000     0.0000     0.0000 c3         1 SFK      -0.086600
      2 CAQ          1.5300     0.0000     0.0000 c3         1 SFK      -0.082700
      3 CAS          2.0400     0.0000     1.4420 c3         1 SFK      -0.086600
      4 CAP          2.0410    -1.2480    -0.7210 c3         1 SFK      -0.058400
      5 CAO          1.6350    -1.1870    -2.1950 c3         1 SFK      -0.161400
      6 CAM          2.1380    -2.4170    -2.9070 c          1 SFK       0.664100
      7 OAN          2.7580    -3.2610    -2.2940 o          1 SFK      -0.623100
      8 N            1.8970    -2.5810    -4.2230 ns         1 SFK      -0.548900
      9 CA           2.3860    -3.7770    -4.9130 c3         1 SFK       0.011700
     10 C            3.8120    -3.5590    -5.3490 c          1 SFK       0.886600
     11 O            4.3630    -2.5110    -5.1060 o          1 SFK      -0.838800
     12 OXT          4.4680    -4.5280    -6.0040 o          1 SFK      -0.838800
     13 CB           1.5140    -4.0480    -6.1400 c3         1 SFK      -0.039100
     14 CG           0.1130    -4.3870    -5.6970 ca         1 SFK      -0.055300
     15 CD1         -0.2320    -5.7010    -5.4420 ca         1 SFK      -0.127500
     16 CE1         -1.5160    -6.0130    -5.0360 ca         1 SFK      -0.134500
     17 CZ          -2.4550    -5.0110    -4.8840 ca         1 SFK      -0.153000
     18 CE2         -2.1090    -3.6960    -5.1380 ca         1 SFK      -0.134500
     19 CD2         -0.8240    -3.3840    -5.5410 ca         1 SFK      -0.127500
     20 H1          -0.3610     0.4020    -0.9390 hc         1 SFK       0.028700
     21 H2          -0.3610    -1.0140     0.1210 hc         1 SFK       0.028700
     22 H3          -0.3610     0.6120     0.8180 hc         1 SFK       0.028700
     23 H4           1.8910     0.8850    -0.5100 hc         1 SFK       0.044700
     24 H5           1.7050     0.9000     1.9430 hc         1 SFK       0.028700
     25 H6           3.1220    -0.0330     1.4430 hc         1 SFK       0.028700
     26 H7           1.6520    -0.8680     1.9620 hc         1 SFK       0.028700
     27 H8           1.6090    -2.1310    -0.2640 hc         1 SFK       0.058700
     28 H9           3.1200    -1.2930    -0.6450 hc         1 SFK       0.058700
     29 H10          0.5550    -1.1410    -2.2720 hc         1 SFK       0.048700
     30 H11          2.0670    -0.3040    -2.6520 hc         1 SFK       0.048700
     31 H12          1.4340    -1.8600    -4.7390 hn         1 SFK       0.293500
     32 H13          2.3390    -4.6260    -4.2420 h1         1 SFK       0.078700
     33 H15          1.4900    -3.1660    -6.7690 hc         1 SFK       0.063700
     34 H16          1.9260    -4.8780    -6.7000 hc         1 SFK       0.063700
     35 H17          0.5040    -6.4870    -5.5610 ha         1 SFK       0.131000
     36 H18         -1.7860    -7.0430    -4.8360 ha         1 SFK       0.114500
     37 H19         -3.4610    -5.2550    -4.5670 ha         1 SFK       0.112000
     38 H20         -2.8450    -2.9100    -5.0180 ha         1 SFK       0.114500
     39 H21         -0.5540    -2.3540    -5.7400 ha         1 SFK       0.131000
@<TRIPOS>BOND
     1     7     6 2
     2     3     2 1
     3     6     5 1
     4     6     8 1
     5     5     4 1
     6     4     2 1
     7     9     8 1
     8     9    13 1
     9     9    10 1
    10     2     1 1
    11    13    14 1
    12    10    11 1
    13    10    12 1
    14    14    19 ar
    15    14    15 ar
    16    19    18 ar
    17    15    16 ar
    18    18    17 ar
    19    16    17 ar
    20     1    20 1
    21     1    21 1
    22     1    22 1
    23     2    23 1
    24     3    24 1
    25     3    25 1
    26     3    26 1
    27     4    27 1
    28     4    28 1
    29     5    29 1
    30     5    30 1
    31     8    31 1
    32     9    32 1
    33    13    33 1
    34    13    34 1
    35    15    35 1
    36    16    36 1
    37    17    37 1
    38    18    38 1
    39    19    39 1
@<TRIPOS>SUBSTRUCTURE
     1 SFK         1 TEMP              0 ****  ****    0 ROOT
