@<TRIPOS>MOLECULE
molecule
    5     4     1     0     0
SMALL
bcc


@<TRIPOS>ATOM
      1 S            0.0000     0.0000     0.0000 s6         1 SFN       1.288800
      2 O1           1.4570     0.0000     0.0000 o          1 SFN      -0.723200
      3 O2          -0.6540     0.0000     1.3020 o          1 SFN      -0.723200
      4 O3          -0.6540    -0.7550    -1.0600 o          1 SFN      -0.723200
      5 HS1         -0.2450     1.2430    -0.3970 hs         1 SFN      -0.120200
@<TRIPOS>BOND
     1     1     2 1
     2     1     3 1
     3     1     4 1
     4     5     1 1
@<TRIPOS>SUBSTRUCTURE
     1 SFN         1 TEMP              0 ****  ****    0 ROOT
