@<TRIPOS>MOLECULE
SFN
    5     4     1     0     0
SMALL
bcc


@<TRIPOS>ATOM
      1 S          -0.0110    0.0580   -0.0180 s6        1 SFN      1.447800
      2 O1          1.4030   -0.0340    0.0110 o         1 SFN     -0.760200
      3 O2         -0.6230   -0.0320    1.2580 o         1 SFN     -0.760200
      4 O3         -0.6230   -0.7500   -1.0100 o         1 SFN     -0.760200
      5 HS1        -0.2420    1.2460   -0.3950 hs        1 SFN     -0.167200
@<TRIPOS>BOND
     1    1    2 1   
     2    1    3 1   
     3    1    4 1   
     4    1    5 1   
@<TRIPOS>SUBSTRUCTURE
     1 SFN         1 TEMP              0 ****  ****    0 ROOT
