@<TRIPOS>MOLECULE
molecule
   29    30     1     0     0
SMALL
bcc


@<TRIPOS>ATOM
      1 O3           0.0000     0.0000     0.0000 o          1 SFQ      -0.835300
      2 C13          1.2150     0.0000     0.0000 c          1 SFQ       0.889200
      3 O4           1.8900     0.0000     1.1660 o          1 SFQ      -0.835300
      4 C8           1.9510    -0.0060    -1.2760 ca         1 SFQ      -0.124600
      5 C9           3.3480    -0.0070    -1.2830 ca         1 SFQ      -0.075000
      6 C10          4.0300    -0.0140    -2.4800 ca         1 SFQ      -0.179000
      7 C11          3.3380    -0.0190    -3.6810 ca         1 SFQ      -0.128000
      8 C12          1.9570    -0.0190    -3.6910 ca         1 SFQ      -0.223000
      9 C7           1.2520    -0.0190    -2.4940 ca         1 SFQ       0.158600
     10 N1          -0.1360    -0.0230    -2.5030 nu         1 SFQ      -0.732500
     11 S1          -0.9540    -0.8680    -3.6700 sy         1 SFQ       1.421200
     12 O1          -2.3310    -0.7930    -3.3290 o          1 SFQ      -0.656300
     13 O2          -0.4390    -0.4270    -4.9190 o          1 SFQ      -0.656300
     14 C4          -0.4920    -2.5600    -3.5100 ca         1 SFQ      -0.281500
     15 C2          -1.2170    -3.4000    -2.6860 ca         1 SFQ      -0.017500
     16 C1          -0.8540    -4.7270    -2.5600 ca         1 SFQ      -0.128500
     17 C3           0.2340    -5.2160    -3.2600 ca         1 SFQ       0.104900
     18 I1           0.7830    -7.2290    -3.0700 i          1 SFQ      -0.194900
     19 C6           0.9590    -4.3760    -4.0850 ca         1 SFQ      -0.128500
     20 C5           0.5930    -3.0500    -4.2150 ca         1 SFQ      -0.017500
     21 H9           3.8950    -0.0030    -0.3480 ha         1 SFQ       0.157000
     22 H10          5.1130    -0.0140    -2.4830 ha         1 SFQ       0.107000
     23 H11          3.8830    -0.0220    -4.6160 ha         1 SFQ       0.108000
     24 H12          1.4240    -0.0260    -4.6340 ha         1 SFQ       0.161000
     25 H14         -0.6420     0.5280    -1.8390 hn         1 SFQ       0.506800
     26 H2          -2.0690    -3.0170    -2.1370 ha         1 SFQ       0.160500
     27 H13         -1.4230    -5.3850    -1.9130 ha         1 SFQ       0.139000
     28 H6           1.8100    -4.7590    -4.6360 ha         1 SFQ       0.139000
     29 H5           1.1610    -2.3920    -4.8610 ha         1 SFQ       0.160500
@<TRIPOS>BOND
     1     1     2 1
     2     2     3 1
     3     2     4 1
     4     4     5 ar
     5     4     9 ar
     6     5     6 ar
     7     6     7 ar
     8     7     8 ar
     9     8     9 ar
    10     9    10 1
    11    10    11 1
    12    11    12 2
    13    11    13 2
    14    11    14 1
    15    14    15 ar
    16    14    20 ar
    17    15    16 ar
    18    16    17 ar
    19    17    18 1
    20    17    19 ar
    21    19    20 ar
    22     5    21 1
    23     6    22 1
    24     7    23 1
    25     8    24 1
    26    10    25 1
    27    15    26 1
    28    16    27 1
    29    19    28 1
    30    20    29 1
@<TRIPOS>SUBSTRUCTURE
     1 SFQ         1 TEMP              0 ****  ****    0 ROOT
