@<TRIPOS>MOLECULE
SFR
   35    36     1     0     0
SMALL
bcc


@<TRIPOS>ATOM
      1 O72          0.0000     0.0000     0.0000 o          1 SFR      -0.897800
      2 C7           1.3420     0.0000     0.0000 c          1 SFR       0.992600
      3 C6           2.0950     0.0000     1.3050 c3         1 SFR      -0.185700
      4 N4           3.9830    -1.2040     0.2780 nu         1 SFR      -0.357000
      5 C5           3.5990    -0.0000     1.0260 c3         1 SFR       0.295600
      6 C3           4.8830    -2.0220     0.9450 ce         1 SFR      -0.011200
      7 C2           5.3160    -1.6670     2.1630 c2         1 SFR      -0.153600
      8 S1           4.5380    -0.1320     2.5820 ss         1 SFR      -0.488700
      9 C31          5.3390    -3.2210     0.3470 c          1 SFR       0.981800
     10 O71          1.9460    -0.0000    -1.0460 o          1 SFR      -0.897800
     11 C61          1.7250     1.2490     2.1070 c3         1 SFR       0.209100
     12 O62          0.3370     1.2080     2.4410 oh         1 SFR      -0.535800
     13 C62          2.0120     2.4970     1.2690 c3         1 SFR      -0.045100
     14 C14          6.2870    -2.4350     3.0220 c3         1 SFR       0.247300
     15 C15          7.5590    -1.5900     3.2850 c3         1 SFR      -0.066400
     16 C16          8.0630    -2.2200     4.6110 c3         1 SFR      -0.069400
     17 C17          6.7420    -2.5870     5.3230 c3         1 SFR       0.211400
     18 O18          5.7210    -2.6750     4.3210 os         1 SFR      -0.402600
     19 O32          6.0420    -3.9870     0.9790 o          1 SFR      -0.887800
     20 O31          4.9920    -3.5150    -0.9250 o          1 SFR      -0.887800
     21 H2           1.8330    -0.8840     1.8730 hc         1 SFR       0.056700
     22 H3           3.6260    -1.4160    -0.6320 hn         1 SFR       0.365800
     23 H5           3.8910     0.8910     0.4830 h2         1 SFR       0.049700
     24 H8           2.3140     1.2820     3.0160 h1         1 SFR      -0.011300
     25 H9           0.2310     1.3590     3.3660 ho         1 SFR       0.336000
     26 H10          3.0730     2.7120     1.2920 hc         1 SFR       0.008700
     27 H11          1.4630     3.3380     1.6750 hc         1 SFR       0.008700
     28 H12          1.7010     2.3240     0.2460 hc         1 SFR       0.008700
     29 H13          6.5520    -3.3740     2.5510 h1         1 SFR       0.123700
     30 H14          8.2840    -1.7250     2.4910 hc         1 SFR       0.024200
     31 H15          7.3080    -0.5450     3.4220 hc         1 SFR       0.024200
     32 H16          8.6220    -1.4960     5.1910 hc         1 SFR       0.000700
     33 H17          8.6520    -3.1070     4.4150 hc         1 SFR       0.000700
     34 H18          6.4850    -1.8170     6.0400 h1         1 SFR      -0.022300
     35 H19          6.8480    -3.5420     5.8220 h1         1 SFR      -0.022300
@<TRIPOS>BOND
     1     1     2 1   
     2     2     3 1   
     3     2    10 1   
     4     3     5 1   
     5     3    11 1   
     6     3    21 1   
     7     4     5 1   
     8     4     6 1   
     9     4    22 1   
    10     5     8 1   
    11     5    23 1   
    12     6     7 2   
    13     6     9 1   
    14     7     8 1   
    15     7    14 1   
    16     9    19 1   
    17     9    20 1   
    18    11    12 1   
    19    11    13 1   
    20    11    24 1   
    21    12    25 1   
    22    13    26 1   
    23    13    27 1   
    24    13    28 1   
    25    14    15 1   
    26    14    18 1   
    27    14    29 1   
    28    15    16 1   
    29    15    30 1   
    30    15    31 1   
    31    16    17 1   
    32    16    32 1   
    33    16    33 1   
    34    17    18 1   
    35    17    34 1   
    36    17    35 1   
@<TRIPOS>SUBSTRUCTURE
     1 SFR         1 TEMP              0 ****  ****    0 ROOT
