@<TRIPOS>MOLECULE
molecule
   35    36     1     0     0
SMALL
bcc


@<TRIPOS>ATOM
      1 O72          0.0000     0.0000     0.0000 o          1 SFR      -0.850800
      2 C7           1.3420     0.0000     0.0000 c          1 SFR       0.904600
      3 C6           2.0950     0.0000     1.3050 c3         1 SFR      -0.191700
      4 N4           3.9830    -1.2040     0.2780 nu         1 SFR      -0.763000
      5 C5           3.5990    -0.0000     1.0260 c3         1 SFR       0.383600
      6 C3           4.8830    -2.0220     0.9450 ce         1 SFR       0.127800
      7 C2           5.3160    -1.6670     2.1630 c2         1 SFR      -0.136600
      8 S1           4.5380    -0.1320     2.5820 ss         1 SFR      -0.457700
      9 C31          5.3390    -3.2210     0.3470 c          1 SFR       0.888800
     10 O71          1.9460    -0.0000    -1.0460 o          1 SFR      -0.850800
     11 C61          1.7250     1.2490     2.1070 c3         1 SFR       0.167100
     12 O62          0.3370     1.2080     2.4410 oh         1 SFR      -0.561800
     13 C62          2.0120     2.4970     1.2690 c3         1 SFR      -0.111100
     14 C14          6.2870    -2.4350     3.0220 c3         1 SFR       0.219300
     15 C15          7.5590    -1.5900     3.2850 c3         1 SFR      -0.110400
     16 C16          8.0630    -2.2200     4.6110 c3         1 SFR      -0.127400
     17 C17          6.7420    -2.5870     5.3230 c3         1 SFR       0.136400
     18 O18          5.7210    -2.6750     4.3210 os         1 SFR      -0.414600
     19 O32          6.0420    -3.9870     0.9790 o          1 SFR      -0.842300
     20 O31          4.9920    -3.5150    -0.9250 o          1 SFR      -0.842300
     21 H2           1.8330    -0.8840     1.8730 hc         1 SFR       0.077700
     22 H3           3.6260    -1.4160    -0.6320 hn         1 SFR       0.505800
     23 H5           3.8910     0.8910     0.4830 h2         1 SFR       0.059700
     24 H8           2.3140     1.2820     3.0160 h1         1 SFR       0.010700
     25 H9           0.2310     1.3590     3.3660 ho         1 SFR       0.353000
     26 H10          3.0730     2.7120     1.2920 hc         1 SFR       0.033033
     27 H11          1.4630     3.3380     1.6750 hc         1 SFR       0.033033
     28 H12          1.7010     2.3240     0.2460 hc         1 SFR       0.033033
     29 H13          6.5520    -3.3740     2.5510 h1         1 SFR       0.142700
     30 H14          8.2840    -1.7250     2.4910 hc         1 SFR       0.050700
     31 H15          7.3080    -0.5450     3.4220 hc         1 SFR       0.050700
     32 H16          8.6220    -1.4960     5.1910 hc         1 SFR       0.027700
     33 H17          8.6520    -3.1070     4.4150 hc         1 SFR       0.027700
     34 H18          6.4850    -1.8170     6.0400 h1         1 SFR       0.013700
     35 H19          6.8480    -3.5420     5.8220 h1         1 SFR       0.013700
@<TRIPOS>BOND
     1    12    11 1
     2    13    11 1
     3    11     3 1
     4     8     7 1
     5     8     5 1
     6    15    14 1
     7    15    16 1
     8    14     7 1
     9    14    18 1
    10     7     6 2
    11     3     5 1
    12     3     2 1
    13    16    17 1
    14     5     4 1
    15    17    18 1
    16     6     4 1
    17     6     9 1
    18     2    10 1
    19     2     1 1
    20    19     9 1
    21     9    20 1
    22     3    21 1
    23     4    22 1
    24     5    23 1
    25    11    24 1
    26    12    25 1
    27    13    26 1
    28    13    27 1
    29    13    28 1
    30    14    29 1
    31    15    30 1
    32    15    31 1
    33    16    32 1
    34    16    33 1
    35    17    34 1
    36    17    35 1
@<TRIPOS>SUBSTRUCTURE
     1 SFR         1 TEMP              0 ****  ****    0 ROOT
