@<TRIPOS>MOLECULE
molecule
   26    26     1     0     0
SMALL
bcc


@<TRIPOS>ATOM
      1 C1           0.0000     0.0000     0.0000 c3         1 SFU       0.296200
      2 C2           1.5310     0.0000     0.0000 c3         1 SFU       0.109100
      3 C3           2.0340     0.0000     1.4480 c3         1 SFU       0.125100
      4 C4           1.4510     1.2140     2.1790 c3         1 SFU       0.116100
      5 C5          -0.0770     1.1670     2.0940 c3         1 SFU       0.137100
      6 C6          -0.5880    -0.0900     2.8000 c3         1 SFU      -0.121100
      7 O2           2.0090     1.1680    -0.6700 oh         1 SFU      -0.583800
      8 O3           1.6110    -1.1990     2.1000 oh         1 SFU      -0.590800
      9 O4           1.8550     1.1840     3.5490 oh         1 SFU      -0.595800
     10 O5          -0.4760     1.1370     0.7210 os         1 SFU      -0.402600
     11 SE          -0.6530     0.0780    -1.8470 ss         1 SFU      -0.441200
     12 H1          -0.3590    -0.9040     0.4770 h2         1 SFU       0.076700
     13 H2           1.8920    -0.8870    -0.5070 h1         1 SFU       0.051700
     14 H3           3.1150     0.0600     1.4540 h1         1 SFU       0.047700
     15 HA           2.5260     0.9130    -1.4170 ho         1 SFU       0.408000
     16 H4           1.8090     2.1230     1.7110 h1         1 SFU       0.066700
     17 HB           2.3550    -1.7630     2.2350 ho         1 SFU       0.402000
     18 H5          -0.4910     2.0480     2.5690 h1         1 SFU       0.083700
     19 HC           2.3630     1.9540     3.7440 ho         1 SFU       0.402000
     20 H61C        -0.0820    -0.2010     3.7520 hc         1 SFU       0.051700
     21 H62C        -0.3900    -0.9580     2.1830 hc         1 SFU       0.051700
     22 H63C        -1.6550    -0.0020     2.9670 hc         1 SFU       0.051700
     23 HM1         -2.8480    -0.7250    -0.8640 h1         1 SFU       0.058367
     24 HM2         -2.9030     1.0190    -1.1520 h1         1 SFU       0.058367
     25 HM3         -3.0950    -0.1070    -2.5030 h1         1 SFU       0.058367
     26 CM          -2.5910     0.0650    -1.5590 c3         1 SFU       0.080000
@<TRIPOS>BOND
     1     1     2 1
     2     1    10 1
     3     1    11 1
     4     2     3 1
     5     2     7 1
     6     3     4 1
     7     3     8 1
     8     4     5 1
     9     4     9 1
    10     5     6 1
    11     5    10 1
    12    26    11 1
    13     1    12 1
    14     2    13 1
    15     3    14 1
    16     7    15 1
    17     4    16 1
    18     8    17 1
    19     5    18 1
    20     9    19 1
    21     6    20 1
    22     6    21 1
    23     6    22 1
    24    26    23 1
    25    26    24 1
    26    26    25 1
@<TRIPOS>SUBSTRUCTURE
     1 SFU         1 TEMP              0 ****  ****    0 ROOT
