@<TRIPOS>MOLECULE
SFU
   26    23     1     0     0
SMALL
bcc


@<TRIPOS>ATOM
      1 C1          0.7970   -0.9340   -0.4240 c2        1 SFU     -0.227000
      2 C2          1.3740   -0.3630    0.6480 c2        1 SFU     -0.025000
      3 C3          3.0490    1.1690    3.1160 c1        1 SFU      0.001000
      4 C4          3.3650    2.0880    4.2470 c3        1 SFU     -0.139000
      5 C5         -1.5670   -1.0370   -0.0450 c1        1 SFU     -0.014000
      6 C6         -1.4920   -1.5130    1.3410 c3        1 SFU     -0.304000
      7 O2          0.6250    0.3330    1.5590 oh        1 SFU     -0.291000
      8 O3          3.9710    0.5140    2.5020 oh        1 SFU     -0.151000
      9 O4          4.7640    2.0840    4.4870 oh        1 SFU     -0.365000
     10 O5         -0.5540   -0.7820   -0.7930 os        1 SFU     -0.042000
     11 SE         -4.5170   -0.3740   -1.8940 sh        1 SFU     -0.117000
     12 H1         -3.4160   -0.6560   -1.1570 hs        1 SFU      0.115000
     13 H2          1.3430   -1.5000   -1.1880 h4        1 SFU      0.166000
     14 H3          2.4570   -0.4370    0.8470 h4        1 SFU      0.147000
     15 HA          1.2470    0.7190    2.2100 ho        1 SFU      0.258000
     16 H4          3.0100    3.1210    3.9750 h1        1 SFU      0.119500
     17 HB          4.8940    0.6490    2.8140 ho        1 SFU      0.209000
     18 H5          2.8050    1.7390    5.1580 h1        1 SFU      0.119500
     19 HC          4.9390    2.7000    5.2080 ho        1 SFU      0.226000
     20 H61C       -1.5660   -0.6180    2.0160 hc        1 SFU      0.109333
     21 H62C       -2.3550   -2.1910    1.5490 hc        1 SFU      0.109333
     22 H63C       -0.5330   -2.0410    1.5790 hc        1 SFU      0.109333
     23 HM1        -3.0310   -0.1680   -3.7690 h1        1 SFU      0.094667
     24 HM2        -4.5760    0.7680   -3.9250 h1        1 SFU      0.094667
     25 HM3        -3.2300    1.3950   -2.8840 h1        1 SFU      0.094667
     26 CM         -3.7570    0.4790   -3.2290 c3        1 SFU     -0.297000
@<TRIPOS>BOND
     1    1    2 1   
     2    1   10 1   
     3    1   13 1   
     4    2    7 1   
     5    2   14 1   
     6    3    4 1   
     7    3    8 1   
     8    4    9 1   
     9    4   16 1   
    10    4   18 1   
    11    5    6 1   
    12    5   10 1   
    13    6   20 1   
    14    6   21 1   
    15    6   22 1   
    16    7   15 1   
    17    8   17 1   
    18    9   19 1   
    19   11   12 1   
    20   11   26 1   
    21   23   26 1   
    22   24   26 1   
    23   25   26 1   
@<TRIPOS>SUBSTRUCTURE
     1 SFU         1 TEMP              0 ****  ****    0 ROOT
