@<TRIPOS>MOLECULE
SFX
   40    41     1     0     0
SMALL
bcc


@<TRIPOS>ATOM
      1 F15          0.0000     0.0000     0.0000 f          1 SFX      -0.209633
      2 C12          1.4000     0.0000     0.0000 c3         1 SFX       0.645200
      3 F13          1.8660     0.0000     1.3180 f          1 SFX      -0.209633
      4 F14          1.8660    -1.1420    -0.6600 f          1 SFX      -0.209633
      5 C9           1.9020     1.2300    -0.7110 ca         1 SFX      -0.260300
      6 C8           2.1320     2.3930     0.0010 ca         1 SFX       0.004500
      7 C7           2.5930     3.5220    -0.6490 ca         1 SFX      -0.196500
      8 C6           2.8240     3.4890    -2.0170 ca         1 SFX       0.190100
      9 C11          2.5920     2.3210    -2.7290 ca         1 SFX      -0.196500
     10 C10          2.1370     1.1930    -2.0730 ca         1 SFX       0.004500
     11 O5           3.2760     4.5980    -2.6580 os         1 SFX      -0.289900
     12 C3           3.6090     4.4580    -4.0400 c3         1 SFX       0.219400
     13 C2           2.4530     4.9730    -4.8980 c3         1 SFX      -0.052400
     14 C1           1.2240     4.0860    -4.6860 c3         1 SFX       0.122800
     15 N4           0.1130     4.5820    -5.5090 n7         1 SFX      -0.580200
     16 C22         -1.0860     3.7510    -5.3310 c3         1 SFX       0.178100
     17 C16          4.8520     5.2550    -4.3410 ca         1 SFX      -0.113300
     18 C17          5.0810     6.4510    -3.6860 ca         1 SFX      -0.081500
     19 C18          6.2210     7.1830    -3.9630 ca         1 SFX      -0.101000
     20 C19          7.1320     6.7180    -4.8930 ca         1 SFX      -0.093000
     21 C20          6.9030     5.5220    -5.5480 ca         1 SFX      -0.101000
     22 C21          5.7650     4.7880    -5.2680 ca         1 SFX      -0.081500
     23 H8           1.9520     2.4190     1.0690 ha         1 SFX       0.116000
     24 H7           2.7730     4.4330    -0.0910 ha         1 SFX       0.132500
     25 H11          2.7730     2.2920    -3.7960 ha         1 SFX       0.132500
     26 H10          1.9560     0.2800    -2.6290 ha         1 SFX       0.116000
     27 H3           3.7870     3.4140    -4.2650 h1         1 SFX       0.032700
     28 H2           2.2170     5.9910    -4.6130 hc         1 SFX       0.035700
     29 H2A          2.7390     4.9490    -5.9430 hc         1 SFX       0.035700
     30 H1           0.9380     4.1100    -3.6410 h1         1 SFX       0.015200
     31 H1A          1.4600     3.0680    -4.9730 h1         1 SFX       0.015200
     32 H22         -1.9000     4.1620    -5.9160 h1         1 SFX      -0.000300
     33 H22A        -1.3640     3.7390    -4.2840 h1         1 SFX      -0.000300
     34 H17          4.3670     6.8150    -2.9570 ha         1 SFX       0.109500
     35 H18          6.4010     8.1200    -3.4500 ha         1 SFX       0.104500
     36 H19          8.0240     7.2920    -5.1110 ha         1 SFX       0.103000
     37 H20          7.6170     5.1570    -6.2750 ha         1 SFX       0.104500
     38 H21          5.5850     3.8510    -5.7800 ha         1 SFX       0.109500
     39 H171         0.3830     4.5750    -6.4730 hn         1 SFX       0.248800
     40 H181        -0.8780     2.7410    -5.6610 h1         1 SFX      -0.000300
@<TRIPOS>BOND
     1     1     2 1   
     2     2     3 1   
     3     2     4 1   
     4     2     5 1   
     5     5     6 ar  
     6     5    10 ar  
     7     6     7 ar  
     8     6    23 1   
     9     7     8 ar  
    10     7    24 1   
    11     8     9 ar  
    12     8    11 1   
    13     9    10 ar  
    14     9    25 1   
    15    10    26 1   
    16    11    12 1   
    17    12    13 1   
    18    12    17 1   
    19    12    27 1   
    20    13    14 1   
    21    13    28 1   
    22    13    29 1   
    23    14    15 1   
    24    14    30 1   
    25    14    31 1   
    26    15    16 1   
    27    15    39 1   
    28    16    32 1   
    29    16    33 1   
    30    16    40 1   
    31    17    18 ar  
    32    17    22 ar  
    33    18    19 ar  
    34    18    34 1   
    35    19    20 ar  
    36    19    35 1   
    37    20    21 ar  
    38    20    36 1   
    39    21    22 ar  
    40    21    37 1   
    41    22    38 1   
@<TRIPOS>SUBSTRUCTURE
     1 SFX         1 TEMP              0 ****  ****    0 ROOT
