@<TRIPOS>MOLECULE
molecule
   28    29     1     0     0
SMALL
bcc


@<TRIPOS>ATOM
      1 OAB          0.0000     0.0000     0.0000 o          1 SFY      -0.623800
      2 SAQ          1.4200     0.0000     0.0000 sy         1 SFY       1.426200
      3 OAC          2.1980     0.0000     1.1900 o          1 SFY      -0.623800
      4 CAP          1.9170    -1.4180    -0.9200 ca         1 SFY      -0.318500
      5 CAJ          3.1660    -1.9740    -0.7100 ca         1 SFY      -0.014000
      6 CAH          3.5580    -3.0860    -1.4290 ca         1 SFY      -0.177000
      7 CAN          2.6970    -3.6460    -2.3650 ca         1 SFY       0.221600
      8 NAA          3.0910    -4.7710    -3.0930 nv         1 SFY      -0.998200
      9 CAI          1.4440    -3.0850    -2.5730 ca         1 SFY      -0.177000
     10 CAK          1.0550    -1.9770    -1.8460 ca         1 SFY      -0.014000
     11 NAM          1.8880     1.3330    -0.8640 nu         1 SFY      -0.854800
     12 CAO          1.3200     1.5910    -2.1060 ca         1 SFY       0.689200
     13 CAG          1.7170     2.7120    -2.8270 ca         1 SFY      -0.287300
     14 CAE          1.1430     2.9570    -4.0610 ca         1 SFY      -0.059000
     15 CAD          0.1880     2.0690    -4.5360 ca         1 SFY      -0.290300
     16 CAF         -0.1600     0.9750    -3.7670 ca         1 SFY       0.468200
     17 NAL          0.4080     0.7630    -2.5950 nb         1 SFY      -0.746000
     18 H1           3.8370    -1.5370     0.0200 ha         1 SFY       0.157000
     19 H2           4.5370    -3.5210    -1.2640 ha         1 SFY       0.140000
     20 H3           2.9000    -5.6870    -2.7400 hn         1 SFY       0.432800
     21 H4           3.5640    -4.6600    -3.9680 hn         1 SFY       0.432800
     22 H5           0.7690    -3.5210    -3.3000 ha         1 SFY       0.140000
     23 H6           0.0770    -1.5400    -2.0080 ha         1 SFY       0.157000
     24 H7           2.5620     1.9670    -0.4810 hn         1 SFY       0.468800
     25 H8           2.4650     3.3850    -2.4270 ha         1 SFY       0.140000
     26 H9           1.4330     3.8220    -4.6450 ha         1 SFY       0.141000
     27 H10         -0.2820     2.2330    -5.4980 ha         1 SFY       0.142000
     28 H11         -0.9030     0.2780    -4.1350 h4         1 SFY       0.028100
@<TRIPOS>BOND
     1    15    14 ar
     2    15    16 ar
     3    14    13 ar
     4    16    17 ar
     5    13    12 ar
     6    17    12 ar
     7    12    11 1
     8     1     2 2
     9    11     2 1
    10     8     7 1
    11     9    10 ar
    12     9     7 ar
    13    10     4 ar
    14     7     6 ar
    15     6     5 ar
    16     4     5 ar
    17     4     2 1
    18     2     3 2
    19     5    18 1
    20     6    19 1
    21     8    20 1
    22     8    21 1
    23     9    22 1
    24    10    23 1
    25    11    24 1
    26    13    25 1
    27    14    26 1
    28    15    27 1
    29    16    28 1
@<TRIPOS>SUBSTRUCTURE
     1 SFY         1 TEMP              0 ****  ****    0 ROOT
