@<TRIPOS>MOLECULE
SFY
   28    29     1     0     0
SMALL
bcc


@<TRIPOS>ATOM
      1 OAB          0.0000     0.0000     0.0000 o          1 SFY      -0.576300
      2 SAQ          1.4200     0.0000     0.0000 sy         1 SFY       1.036200
      3 OAC          2.1980     0.0000     1.1900 o          1 SFY      -0.576300
      4 CAP          1.9170    -1.4180    -0.9200 ca         1 SFY      -0.161500
      5 CAJ          3.1660    -1.9740    -0.7100 ca         1 SFY       0.015000
      6 CAH          3.5580    -3.0860    -1.4290 ca         1 SFY      -0.153500
      7 CAN          2.6970    -3.6460    -2.3650 ca         1 SFY       0.086600
      8 NAA          3.0910    -4.7710    -3.0930 nv         1 SFY      -0.569200
      9 CAI          1.4440    -3.0850    -2.5730 ca         1 SFY      -0.153500
     10 CAK          1.0550    -1.9770    -1.8460 ca         1 SFY       0.015000
     11 NAM          1.8880     1.3330    -0.8640 nu         1 SFY      -0.483800
     12 CAO          1.3200     1.5910    -2.1060 ca         1 SFY       0.559200
     13 CAG          1.7170     2.7120    -2.8270 ca         1 SFY      -0.273300
     14 CAE          1.1430     2.9570    -4.0610 ca         1 SFY      -0.027000
     15 CAD          0.1880     2.0690    -4.5360 ca         1 SFY      -0.267300
     16 CAF         -0.1600     0.9750    -3.7670 ca         1 SFY       0.450200
     17 NAL          0.4080     0.7630    -2.5950 nb         1 SFY      -0.626000
     18 H1           3.8370    -1.5370     0.0200 ha         1 SFY       0.130000
     19 H2           4.5370    -3.5210    -1.2640 ha         1 SFY       0.113000
     20 H3           2.9000    -5.6870    -2.7400 hn         1 SFY       0.277800
     21 H4           3.5640    -4.6600    -3.9680 hn         1 SFY       0.277800
     22 H5           0.7690    -3.5210    -3.3000 ha         1 SFY       0.113000
     23 H6           0.0770    -1.5400    -2.0080 ha         1 SFY       0.130000
     24 H7           2.5620     1.9670    -0.4810 hn         1 SFY       0.346800
     25 H8           2.4650     3.3850    -2.4270 ha         1 SFY       0.117000
     26 H9           1.4330     3.8220    -4.6450 ha         1 SFY       0.106000
     27 H10         -0.2820     2.2330    -5.4980 ha         1 SFY       0.116000
     28 H11         -0.9030     0.2780    -4.1350 h4         1 SFY      -0.020900
@<TRIPOS>BOND
     1     1     2 2   
     2     2     3 2   
     3     2     4 1   
     4     2    11 1   
     5     4     5 ar  
     6     4    10 ar  
     7     5     6 ar  
     8     5    18 1   
     9     6     7 ar  
    10     6    19 1   
    11     7     8 1   
    12     7     9 ar  
    13     8    20 1   
    14     8    21 1   
    15     9    10 ar  
    16     9    22 1   
    17    10    23 1   
    18    11    12 1   
    19    11    24 1   
    20    12    13 ar  
    21    12    17 ar  
    22    13    14 ar  
    23    13    25 1   
    24    14    15 ar  
    25    14    26 1   
    26    15    16 ar  
    27    15    27 1   
    28    16    17 ar  
    29    16    28 1   
@<TRIPOS>SUBSTRUCTURE
     1 SFY         1 TEMP              0 ****  ****    0 ROOT
