@<TRIPOS>MOLECULE
molecule
   31    32     1     0     0
SMALL
bcc


@<TRIPOS>ATOM
      1 S1           0.0000     0.0000     0.0000 sy         1 SG1       1.246200
      2 C2           1.7610     0.0000     0.0000 ca         1 SG1      -0.365500
      3 C3           2.4520     0.0000     1.1990 ca         1 SG1       0.006000
      4 C4           3.8320    -0.0000     1.2030 ca         1 SG1      -0.135000
      5 C5           4.5280    -0.0010     0.0010 ca         1 SG1       0.238600
      6 N6           5.9280    -0.0010     0.0010 n          1 SG1      -0.447000
      7 C7           6.6870     1.1080    -0.0050 c          1 SG1       0.725500
      8 O8           6.2590     2.2430    -0.0130 o          1 SG1      -0.612500
      9 C9           8.1530     0.7360     0.0110 c3         1 SG1      -0.154400
     10 C10          8.1640    -0.7510     0.4370 c3         1 SG1      -0.092400
     11 C11          6.7550    -1.2140     0.0010 c3         1 SG1       0.105000
     12 C12          3.8330    -0.0000    -1.2010 ca         1 SG1      -0.172200
     13 N13          4.5710    -0.0010    -2.4840 no         1 SG1       0.297200
     14 O14          3.9600    -0.0010    -3.5380 o          1 SG1      -0.169500
     15 O15          5.7890    -0.0010    -2.4860 o          1 SG1      -0.169500
     16 C16          2.4510    -0.0050    -1.1970 ca         1 SG1       0.034000
     17 N17         -0.4960     1.5800     0.0000 nz         1 SG1      -0.809500
     18 O18         -0.3870    -0.5260     1.2620 o          1 SG1      -0.510300
     19 O19         -0.3870    -0.5250    -1.2630 o          1 SG1      -0.510300
     20 H31          1.9090     0.0000     2.1370 ha         1 SG1       0.168000
     21 H41          4.3720    -0.0000     2.1420 ha         1 SG1       0.187000
     22 H91          8.6880     1.3390     0.7350 hc         1 SG1       0.096700
     23 H92          8.5820     0.8480    -0.9770 hc         1 SG1       0.096700
     24 H101         8.2840    -0.8430     1.5100 hc         1 SG1       0.073200
     25 H102         8.9310    -1.2990    -0.0960 hc         1 SG1       0.073200
     26 H111         6.7930    -1.6390    -0.9950 h1         1 SG1       0.062700
     27 H112         6.3620    -1.9340     0.7080 h1         1 SG1       0.062700
     28 H161         1.9080    -0.0050    -2.1350 ha         1 SG1       0.189000
     29 H171        -1.4960     1.6160     0.0030 hn         1 SG1       0.495800
     30 H172        -0.1470     2.0400    -0.8180 hn         1 SG1       0.495800
     31 H173        -0.1420     2.0410     0.8150 hn         1 SG1       0.495800
@<TRIPOS>BOND
     1     1     2 1
     2     1    17 1
     3     1    18 2
     4     1    19 2
     5     2     3 ar
     6     2    16 ar
     7     3     4 ar
     8     3    20 1
     9     4     5 ar
    10     4    21 1
    11     5     6 1
    12     5    12 ar
    13     6     7 1
    14     6    11 1
    15     7     8 2
    16     7     9 1
    17     9    10 1
    18     9    22 1
    19     9    23 1
    20    10    11 1
    21    10    24 1
    22    10    25 1
    23    11    26 1
    24    11    27 1
    25    12    13 1
    26    12    16 ar
    27    13    14 1
    28    13    15 1
    29    16    28 1
    30    17    29 1
    31    17    30 1
    32    31    17 1
@<TRIPOS>SUBSTRUCTURE
     1 SG1         1 TEMP              0 ****  ****    0 ROOT
