@<TRIPOS>MOLECULE
SG2
   24    25     1     0     0
SMALL
bcc


@<TRIPOS>ATOM
      1 S1          0.1120    0.2280   -0.0400 sy        1 SG2      1.512200
      2 C2          1.6800    0.0820   -0.0140 ca        1 SG2     -0.655500
      3 C3          2.3940    0.0880    1.2260 ca        1 SG2      0.047000
      4 C4          3.7590    0.0460    1.3030 ca        1 SG2     -0.190000
      5 C5          4.5190   -0.0070    0.0980 ca        1 SG2      0.138800
      6 N           5.8680   -0.0430   -0.0380 na        1 SG2     -0.046100
      7 C6          6.8270   -0.0150    1.0250 c3        1 SG2      0.012600
      8 S7          6.3490   -0.0950   -1.6380 ss        1 SG2      0.016000
      9 C8          4.7210   -0.0780   -2.3250 c         1 SG2      0.572300
     10 O9          4.4040   -0.1150   -3.5080 o         1 SG2     -0.446100
     11 C10         3.8160   -0.0210   -1.1660 ca        1 SG2     -0.298600
     12 C11         2.4460    0.0340   -1.2070 ca        1 SG2      0.139000
     13 N12        -0.3380   -1.6700   -0.0800 n4        1 SG2     -0.782500
     14 O13        -0.4810    0.5610    1.1590 o         1 SG2     -0.575300
     15 O14        -0.4390    0.5970   -1.2490 o         1 SG2     -0.575300
     16 H31         1.8040    0.1510    2.1630 ha        1 SG2      0.170000
     17 H41         4.2770    0.0640    2.2760 ha        1 SG2      0.177000
     18 H61         7.8630   -0.0440    0.5880 h1        1 SG2      0.084033
     19 H62         6.6820   -0.9060    1.6950 h1        1 SG2      0.084033
     20 H63         6.7050    0.9270    1.6270 h1        1 SG2      0.084033
     21 H111        1.9360    0.0560   -2.1920 ha        1 SG2      0.184000
     22 H121       -0.8730   -1.8840   -0.9180 hn        1 SG2      0.449467
     23 H122       -0.9100   -1.9110    0.7260 hn        1 SG2      0.449467
     24 H123        0.4850   -2.2600   -0.0710 hn        1 SG2      0.449467
@<TRIPOS>BOND
     1    1    2 1   
     2    1   13 1   
     3    1   14 2   
     4    1   15 2   
     5    2    3 ar  
     6    2   12 ar  
     7    3    4 ar  
     8    3   16 1   
     9    4    5 ar  
    10    4   17 1   
    11    5    6 1   
    12    5   11 ar  
    13    6    7 1   
    14    6    8 1   
    15    7   18 1   
    16    7   19 1   
    17    7   20 1   
    18    8    9 1   
    19    9   10 2   
    20    9   11 1   
    21   11   12 ar  
    22   12   21 1   
    23   13   22 1   
    24   13   23 1   
    25   13   24 1   
@<TRIPOS>SUBSTRUCTURE
     1 SG2         1 TEMP              0 ****  ****    0 ROOT
