@<TRIPOS>MOLECULE
SG3
   23    22     1     0     0
SMALL
bcc


@<TRIPOS>ATOM
      1 O3          0.7270   -0.1160    0.2750 o         1 SG3     -0.939500
      2 P           1.8750    0.8520    0.4060 p5        1 SG3      1.221100
      3 O4          1.4770    2.2690    0.7930 o         1 SG3     -0.939500
      4 O2          3.0940    0.3240    1.1210 o         1 SG3     -0.939500
      5 C5          2.4760    1.0140   -1.2740 c2        1 SG3     -0.188600
      6 C6          2.2220    1.8420   -2.2790 c2        1 SG3     -0.257200
      7 C7          1.2420    2.9750   -2.2950 c3        1 SG3      0.222300
      8 O13         1.5310    3.9700   -1.3390 oh        1 SG3     -0.703800
      9 C8          1.2150    3.7010   -3.6810 c3        1 SG3      0.134300
     10 C12         0.7410    2.7370   -4.7720 c3        1 SG3     -0.113100
     11 F11         0.3350    4.7870   -3.6300 f         1 SG3     -0.266300
     12 C9          2.6280    4.2350   -4.0160 c3        1 SG3      0.107400
     13 O10         2.5860    5.3120   -4.9390 oh        1 SG3     -0.640800
     14 H5C2        3.2280    0.2260   -1.4490 ha        1 SG3      0.082000
     15 H6C2        2.7690    1.7290   -3.2360 ha        1 SG3      0.024000
     16 H7          0.1970    2.5840   -2.1190 h1        1 SG3      0.037700
     17 H13         1.5910    3.4880   -0.4570 ho        1 SG3      0.515000
     18 H121        0.8080    3.2320   -5.7700 hc        1 SG3      0.036367
     19 H122        1.3730    1.8200   -4.7680 hc        1 SG3      0.036367
     20 H123       -0.3190    2.4450   -4.5800 hc        1 SG3      0.036367
     21 H9C1        3.2400    3.4430   -4.5180 h1        1 SG3      0.066200
     22 H9C2        3.1220    4.5660   -3.0630 h1        1 SG3      0.066200
     23 H10         1.9480    5.9470   -4.5920 ho        1 SG3      0.401000
@<TRIPOS>BOND
     1    1    2 1   
     2    2    3 1   
     3    2    4 1   
     4    2    5 1   
     5    5    6 2   
     6    5   14 1   
     7    6    7 1   
     8    6   15 1   
     9    7    8 1   
    10    7    9 1   
    11    7   16 1   
    12    8   17 1   
    13    9   10 1   
    14    9   11 1   
    15    9   12 1   
    16   10   18 1   
    17   10   19 1   
    18   10   20 1   
    19   12   13 1   
    20   12   21 1   
    21   12   22 1   
    22   13   23 1   
@<TRIPOS>SUBSTRUCTURE
     1 SG3         1 TEMP              0 ****  ****    0 ROOT
