@<TRIPOS>MOLECULE
molecule
   23    22     1     0     0
SMALL
bcc


@<TRIPOS>ATOM
      1 O3           0.0000     0.0000     0.0000 o          1 SG3      -0.909833
      2 P            1.6100     0.0000     0.0000 p5         1 SG3       1.040100
      3 O4           2.1470     0.0000     1.5170 o          1 SG3      -0.909833
      4 O2           2.1030    -1.2090    -0.6980 o          1 SG3      -0.909833
      5 C5           2.2150     1.4800    -0.8560 c2         1 SG3      -0.178600
      6 C6           1.3640     2.3430    -1.3540 c2         1 SG3      -0.263200
      7 C7           1.8670     3.5730    -2.0640 c3         1 SG3       0.159300
      8 O13          3.2900     3.5160    -2.1680 oh         1 SG3      -0.607800
      9 C8           1.2560     3.6370    -3.4660 c3         1 SG3       0.188300
     10 C12          1.6590     2.3910    -4.2560 c3         1 SG3      -0.099100
     11 F11         -0.1390     3.6940    -3.3650 f          1 SG3      -0.239300
     12 C9           1.7660     4.8870    -4.1880 c3         1 SG3       0.107400
     13 O10          1.1960     4.9470    -5.4970 oh         1 SG3      -0.605800
     14 H5C2         3.2800     1.6510    -0.9540 ha         1 SG3       0.089000
     15 H6C2         0.2990     2.1720    -1.2550 ha         1 SG3       0.168000
     16 H7           1.5800     4.4550    -1.5050 h1         1 SG3       0.006700
     17 H13          3.6750     4.1050    -1.5410 ho         1 SG3       0.384000
     18 H121         2.7400     2.3300    -4.3060 hc         1 SG3       0.054700
     19 H122         1.2550     2.4540    -5.2590 hc         1 SG3       0.054700
     20 H123         1.2690     1.5090    -3.7640 hc         1 SG3       0.054700
     21 H9C1         2.8450     4.8430    -4.2660 h1         1 SG3       0.021700
     22 H9C2         1.4800     5.7690    -3.6280 h1         1 SG3       0.021700
     23 H10          1.3850     5.7860    -5.8840 ho         1 SG3       0.375000
@<TRIPOS>BOND
     1     1     2 1
     2     2     3 1
     3     2     4 1
     4     2     5 1
     5     5     6 2
     6     5    14 1
     7     6     7 1
     8     6    15 1
     9     7     8 1
    10     7     9 1
    11     7    16 1
    12     8    17 1
    13     9    10 1
    14     9    11 1
    15     9    12 1
    16    10    18 1
    17    10    19 1
    18    10    20 1
    19    12    13 1
    20    12    21 1
    21    12    22 1
    22    13    23 1
@<TRIPOS>SUBSTRUCTURE
     1 SG3         1 TEMP              0 ****  ****    0 ROOT
