@<TRIPOS>MOLECULE
SG8
   62    66     1     0     0
SMALL
bcc


@<TRIPOS>ATOM
      1 C4           0.0000     0.0000     0.0000 ca         1 SG8       0.135900
      2 C3           1.3760     0.0000     0.0000 ca         1 SG8      -0.088000
      3 C2           2.0740     0.0000     1.2010 ca         1 SG8      -0.117000
      4 C1           1.4030    -0.0010     2.3980 ca         1 SG8       0.150900
      5 O1          -2.9860     0.1620     5.4320 o          1 SG8      -0.632100
      6 F1          -0.6720    -0.0050    -1.1730 f          1 SG8      -0.118900
      7 S1          -2.4410    -0.0010     1.5170 ss         1 SG8      -0.133500
      8 N1          -4.5330    -0.1840     3.8760 n          1 SG8      -0.129800
      9 C10         -4.8400    -0.5670     2.4950 c3         1 SG8       0.053300
     10 C11         -5.6180    -0.0010     4.8430 c3         1 SG8       0.044700
     11 C12         -5.1630     0.6670     1.6920 ca         1 SG8      -0.116300
     12 C13         -6.0490     0.5890     0.6330 ca         1 SG8      -0.084000
     13 C14         -6.3530     1.7180    -0.1060 ca         1 SG8      -0.095000
     14 C15         -5.7760     2.9300     0.2130 ca         1 SG8      -0.089000
     15 C16         -4.8830     3.0150     1.2800 cp         1 SG8      -0.031000
     16 C17         -4.5790     1.8750     2.0190 ca         1 SG8      -0.091000
     17 C18         -5.4400    -0.9820     6.0020 c3         1 SG8      -0.065400
     18 C19         -6.5740    -0.7900     7.0120 c3         1 SG8      -0.016400
     19 F2           2.0960    -0.0000     3.5570 f          1 SG8      -0.117900
     20 N2          -7.6300     0.8270     8.5170 n7         1 SG8      -0.586200
     21 C20         -6.5420     0.6430     7.5480 c3         1 SG8       0.111500
     22 C21         -6.7200     1.6250     6.3890 c3         1 SG8      -0.016400
     23 C22         -5.5870     1.4330     5.3790 c3         1 SG8      -0.065400
     24 C23         -7.3140     1.9060     9.4640 c3         1 SG8       0.174100
     25 C24         -3.3600     4.4190     2.6920 ca         1 SG8      -0.224300
     26 C25         -2.8020     5.6480     2.9790 ca         1 SG8       0.408700
     27 C26         -3.9550     6.6610     1.2570 ca         1 SG8       0.408700
     28 C27         -4.5510     5.4700     0.8950 ca         1 SG8      -0.224300
     29 C28         -4.2580     4.3160     1.6260 cp         1 SG8       0.004000
     30 N3          -3.1080     6.7150     2.2680 nb         1 SG8      -0.586000
     31 C5          -0.7080    -0.0000     1.2080 ca         1 SG8       0.006900
     32 C6          -0.0150    -0.0010     2.4240 ca         1 SG8      -0.101800
     33 C7          -2.1820    -0.0010     3.2530 cc         1 SG8      -0.103600
     34 C8          -0.8740    -0.0020     3.5350 cd         1 SG8       0.036200
     35 C9          -3.2540    -0.0020     4.2570 c          1 SG8       0.640300
     36 H1           1.9160     0.0000    -0.9390 ha         1 SG8       0.127000
     37 H2           3.1570     0.0000     1.1930 ha         1 SG8       0.128000
     38 H3          -5.6910    -1.2370     2.4860 h1         1 SG8       0.059200
     39 H4          -3.9830    -1.0670     2.0600 h1         1 SG8       0.059200
     40 H5          -6.5710    -0.1830     4.3610 h1         1 SG8       0.039700
     41 H6          -6.5040    -0.3610     0.3800 ha         1 SG8       0.106000
     42 H7          -7.0480     1.6510    -0.9350 ha         1 SG8       0.106000
     43 H8          -6.0150     3.8140    -0.3660 ha         1 SG8       0.113000
     44 H9          -3.8850     1.9350     2.8490 ha         1 SG8       0.128000
     45 H10         -5.4660    -1.9960     5.6220 hc         1 SG8       0.038700
     46 H11         -4.4900    -0.7970     6.4880 hc         1 SG8       0.038700
     47 H12         -6.4450    -1.4840     7.8340 hc         1 SG8       0.019450
     48 H13         -7.5240    -0.9710     6.5250 hc         1 SG8       0.019450
     49 H14         -7.7770    -0.0260     9.0200 hn         1 SG8       0.253800
     50 H16         -5.5880     0.8250     8.0290 h1         1 SG8       0.021700
     51 H17         -6.6950     2.6390     6.7690 hc         1 SG8       0.019450
     52 H18         -7.6700     1.4390     5.9030 hc         1 SG8       0.019450
     53 H19         -4.6360     1.6140     5.8660 hc         1 SG8       0.038700
     54 H20         -5.7160     2.1270     4.5570 hc         1 SG8       0.038700
     55 H21         -7.0410     2.7990     8.9160 h1         1 SG8      -0.000633
     56 H22         -6.4860     1.6020    10.0940 h1         1 SG8      -0.000633
     57 H23         -8.1800     2.1100    10.0810 h1         1 SG8      -0.000633
     58 H25         -2.1030     5.7380     3.8030 h4         1 SG8      -0.019900
     59 H26         -4.1770     7.5610     0.6970 h4         1 SG8      -0.019900
     60 H27         -5.2450     5.4340     0.0640 ha         1 SG8       0.121500
     61 Cl1         -0.2790    -0.0020     5.1660 cl         1 SG8       0.080600
     62 H24         -3.1030     3.5470     3.2820 ha         1 SG8       0.121500
@<TRIPOS>BOND
     1     1     2 ar  
     2     1     6 1   
     3     1    31 ar  
     4     2     3 ar  
     5     2    36 1   
     6     3     4 ar  
     7     3    37 1   
     8     4    19 1   
     9     4    32 ar  
    10     5    35 2   
    11     7    31 1   
    12     7    33 1   
    13     8     9 1   
    14     8    10 1   
    15     8    35 1   
    16     9    11 1   
    17     9    38 1   
    18     9    39 1   
    19    10    17 1   
    20    10    23 1   
    21    10    40 1   
    22    11    12 ar  
    23    11    16 ar  
    24    12    13 ar  
    25    12    41 1   
    26    13    14 ar  
    27    13    42 1   
    28    14    15 ar  
    29    14    43 1   
    30    15    16 ar  
    31    15    29 1   
    32    16    44 1   
    33    17    18 1   
    34    17    45 1   
    35    17    46 1   
    36    18    21 1   
    37    18    47 1   
    38    18    48 1   
    39    20    21 1   
    40    20    24 1   
    41    20    49 1   
    42    21    22 1   
    43    21    50 1   
    44    22    23 1   
    45    22    51 1   
    46    22    52 1   
    47    23    53 1   
    48    23    54 1   
    49    24    55 1   
    50    24    56 1   
    51    24    57 1   
    52    25    26 ar  
    53    25    29 ar  
    54    25    62 1   
    55    26    30 ar  
    56    26    58 1   
    57    27    28 ar  
    58    27    30 ar  
    59    27    59 1   
    60    28    29 ar  
    61    28    60 1   
    62    31    32 ar  
    63    32    34 1   
    64    33    34 2   
    65    33    35 1   
    66    34    61 1   
@<TRIPOS>SUBSTRUCTURE
     1 SG8         1 TEMP              0 ****  ****    0 ROOT
