@<TRIPOS>MOLECULE
molecule
   62    66     1     0     0
SMALL
bcc


@<TRIPOS>ATOM
      1 C4           0.0000     0.0000     0.0000 ca         1 SG8       0.142900
      2 C3           1.3760     0.0000     0.0000 ca         1 SG8      -0.119000
      3 C2           2.0740     0.0000     1.2010 ca         1 SG8      -0.158000
      4 C1           1.4030    -0.0010     2.3980 ca         1 SG8       0.174900
      5 O1          -2.9860     0.1620     5.4320 o          1 SG8      -0.579100
      6 F1          -0.6720    -0.0050    -1.1730 f          1 SG8      -0.131900
      7 S1          -2.4410    -0.0010     1.5170 ss         1 SG8       0.019500
      8 N1          -4.5330    -0.1840     3.8760 n          1 SG8      -0.482800
      9 C10         -4.8400    -0.5670     2.4950 c3         1 SG8       0.131300
     10 C11         -5.6180    -0.0010     4.8430 c3         1 SG8       0.130700
     11 C12         -5.1630     0.6670     1.6920 ca         1 SG8      -0.127300
     12 C13         -6.0490     0.5890     0.6330 ca         1 SG8      -0.112000
     13 C14         -6.3530     1.7180    -0.1060 ca         1 SG8      -0.125000
     14 C15         -5.7760     2.9300     0.2130 ca         1 SG8      -0.106000
     15 C16         -4.8830     3.0150     1.2800 cp         1 SG8      -0.039000
     16 C17         -4.5790     1.8750     2.0190 ca         1 SG8      -0.096000
     17 C18         -5.4400    -0.9820     6.0020 c3         1 SG8      -0.103900
     18 C19         -6.5740    -0.7900     7.0120 c3         1 SG8      -0.072900
     19 F2           2.0960    -0.0000     3.5570 f          1 SG8      -0.120900
     20 N2          -7.6300     0.8270     8.5170 n7         1 SG8      -0.821200
     21 C20         -6.5420     0.6430     7.5480 c3         1 SG8       0.161500
     22 C21         -6.7200     1.6250     6.3890 c3         1 SG8      -0.072900
     23 C22         -5.5870     1.4330     5.3790 c3         1 SG8      -0.103900
     24 C23         -7.3140     1.9060     9.4640 c3         1 SG8       0.146100
     25 C24         -3.3600     4.4190     2.6920 ca         1 SG8      -0.247800
     26 C25         -2.8020     5.6480     2.9790 ca         1 SG8       0.422700
     27 C26         -3.9550     6.6610     1.2570 ca         1 SG8       0.422700
     28 C27         -4.5510     5.4700     0.8950 ca         1 SG8      -0.247800
     29 C28         -4.2580     4.3160     1.6260 cp         1 SG8       0.000000
     30 N3          -3.1080     6.7150     2.2680 nb         1 SG8      -0.691000
     31 C5          -0.7080    -0.0000     1.2080 ca         1 SG8      -0.053100
     32 C6          -0.0150    -0.0010     2.4240 ca         1 SG8      -0.109800
     33 C7          -2.1820    -0.0010     3.2530 cc         1 SG8      -0.140600
     34 C8          -0.8740    -0.0020     3.5350 cd         1 SG8       0.108200
     35 C9          -3.2540    -0.0020     4.2570 c          1 SG8       0.699300
     36 H1           1.9160     0.0000    -0.9390 ha         1 SG8       0.158000
     37 H2           3.1570     0.0000     1.1930 ha         1 SG8       0.158000
     38 H3          -5.6910    -1.2370     2.4860 h1         1 SG8       0.074200
     39 H4          -3.9830    -1.0670     2.0600 h1         1 SG8       0.074200
     40 H5          -6.5710    -0.1830     4.3610 h1         1 SG8       0.062700
     41 H6          -6.5040    -0.3610     0.3800 ha         1 SG8       0.132000
     42 H7          -7.0480     1.6510    -0.9350 ha         1 SG8       0.136000
     43 H8          -6.0150     3.8140    -0.3660 ha         1 SG8       0.137000
     44 H9          -3.8850     1.9350     2.8490 ha         1 SG8       0.146000
     45 H10         -5.4660    -1.9960     5.6220 hc         1 SG8       0.062700
     46 H11         -4.4900    -0.7970     6.4880 hc         1 SG8       0.062700
     47 H12         -6.4450    -1.4840     7.8340 hc         1 SG8       0.048200
     48 H13         -7.5240    -0.9710     6.5250 hc         1 SG8       0.048200
     49 H14         -7.7770    -0.0260     9.0200 hn         1 SG8       0.352800
     50 H16         -5.5880     0.8250     8.0290 h1         1 SG8       0.036700
     51 H17         -6.6950     2.6390     6.7690 hc         1 SG8       0.048200
     52 H18         -7.6700     1.4390     5.9030 hc         1 SG8       0.048200
     53 H19         -4.6360     1.6140     5.8660 hc         1 SG8       0.062700
     54 H20         -5.7160     2.1270     4.5570 hc         1 SG8       0.062700
     55 H21         -7.0410     2.7990     8.9160 h1         1 SG8       0.030700
     56 H22         -6.4860     1.6020    10.0940 h1         1 SG8       0.030700
     57 H23         -8.1800     2.1100    10.0810 h1         1 SG8       0.030700
     58 H25         -2.1030     5.7380     3.8030 h4         1 SG8       0.024600
     59 H26         -4.1770     7.5610     0.6970 h4         1 SG8       0.024600
     60 H27         -5.2450     5.4340     0.0640 ha         1 SG8       0.141500
     61 Cl1         -0.2790    -0.0020     5.1660 cl         1 SG8      -0.034400
     62 H24         -3.1030     3.5470     3.2820 ha         1 SG8       0.141500
@<TRIPOS>BOND
     1    13    14 ar
     2    13    12 ar
     3    14    15 ar
     4    12    11 ar
     5    28    27 ar
     6    28    29 ar
     7     6     1 1
     8    27    30 ar
     9    15    29 1
    10    15    16 ar
    11    29    25 ar
    12     7    31 1
    13     7    33 1
    14    11    16 ar
    15    11     9 1
    16     1    31 ar
    17     1     2 ar
    18    23    22 1
    19    23    10 1
    20    30    26 ar
    21    22    21 1
    22    31    32 ar
    23     2     3 ar
    24    25    26 ar
    25    33    35 1
    26    33    34 2
    27     9     8 1
    28    35     8 1
    29    35     5 2
    30     8    10 1
    31    10    17 1
    32    21    20 1
    33    21    18 1
    34    20    24 1
    35    32    34 1
    36    32     4 ar
    37     3     4 ar
    38    34    61 1
    39     4    19 1
    40    17    18 1
    41     2    36 1
    42     3    37 1
    43     9    38 1
    44     9    39 1
    45    10    40 1
    46    12    41 1
    47    13    42 1
    48    14    43 1
    49    16    44 1
    50    17    45 1
    51    17    46 1
    52    18    47 1
    53    18    48 1
    54    20    49 1
    55    21    50 1
    56    22    51 1
    57    22    52 1
    58    23    53 1
    59    23    54 1
    60    24    55 1
    61    24    56 1
    62    24    57 1
    63    25    62 1
    64    26    58 1
    65    27    59 1
    66    28    60 1
@<TRIPOS>SUBSTRUCTURE
     1 SG8         1 TEMP              0 ****  ****    0 ROOT
