@<TRIPOS>MOLECULE
SGE
   40    45     1     0     0
SMALL
bcc


@<TRIPOS>ATOM
      1 NAA          0.0000     0.0000     0.0000 nh         1 SGE      -0.384000
      2 CAB         -0.0020    -0.4280     2.3970 ca         1 SGE      -0.109300
      3 CAC          1.3880     0.0000     0.0000 ca         1 SGE       0.040600
      4 CAD          2.1000     0.0000     1.1950 ca         1 SGE      -0.063000
      5 CAE          2.0950     0.0020    -1.2230 ca         1 SGE      -0.022000
      6 CAF          1.3390    -0.0230     2.4680 ca         1 SGE      -0.027000
      7 CAG         -0.5840    -0.8120     1.0710 c3         1 SGE       0.216100
      8 CAH         -0.7290    -0.4500     3.5690 ca         1 SGE       0.068100
      9 CAI          1.3850    -0.0050    -2.4420 ca         1 SGE      -0.083000
     10 CAJ          3.5110     0.0150    -1.2060 ca         1 SGE      -0.024000
     11 CAK          2.1200     0.0010    -3.5960 ca         1 SGE       0.060100
     12 CAL          3.5350     0.0120    -3.5800 ca         1 SGE       0.073100
     13 CAM          3.5000     0.0190     1.1950 ca         1 SGE      -0.083000
     14 CAN          4.2450     0.0190    -2.4120 ca         1 SGE      -0.101000
     15 CAO          1.9210     0.3400     3.6740 ca         1 SGE      -0.092000
     16 CAP         -0.1340    -0.0800     4.7890 ca         1 SGE       0.058100
     17 OAQ         -2.0180    -0.7900     3.8000 os         1 SGE      -0.310900
     18 OAR          1.7020    -0.0040    -4.8840 os         1 SGE      -0.309900
     19 OAS          3.9790     0.0140    -4.8590 os         1 SGE      -0.311900
     20 OAT         -1.0580    -0.1910     5.7720 os         1 SGE      -0.310900
     21 CAU         -2.1130    -1.0070     5.2230 c3         1 SGE       0.431200
     22 CAV          2.8460     0.4060    -5.6620 c3         1 SGE       0.428200
     23 CAW          4.1950     0.0250     0.0270 ca         1 SGE      -0.095000
     24 CAX          1.1950     0.3190     4.8570 ca         1 SGE      -0.089000
     25 CAY         -0.5270     1.3710     0.0320 c3         1 SGE       0.172100
     26 HAG         -1.6560    -0.6550     1.0930 h1         1 SGE       0.036700
     27 HAGA        -0.3750    -1.8580     0.8790 h1         1 SGE       0.036700
     28 HAI          0.3480    -0.3160    -2.4620 ha         1 SGE       0.139000
     29 HAM          4.0360     0.0280     2.1360 ha         1 SGE       0.108000
     30 HAN          5.2890    -0.2700    -2.4110 ha         1 SGE       0.123000
     31 HAO          2.9610     0.6450     3.6920 ha         1 SGE       0.114000
     32 HAU         -1.9450    -2.0510     5.4580 h2         1 SGE       0.013700
     33 HAUA        -3.0770    -0.6770     5.5920 h2         1 SGE       0.013700
     34 HAV          2.8610    -0.1120    -6.6130 h2         1 SGE       0.013200
     35 HAVA         2.8390     1.4790    -5.8070 h2         1 SGE       0.013200
     36 HAW          5.2780     0.0420     0.0430 ha         1 SGE       0.108000
     37 HAX          1.5550     0.8610     5.7230 ha         1 SGE       0.119000
     38 HAY         -0.0660     1.9160     0.8460 h1         1 SGE       0.009700
     39 HAYA        -0.3040     1.8650    -0.9060 h1         1 SGE       0.009700
     40 HAYB        -1.6000     1.3420     0.1780 h1         1 SGE       0.009700
@<TRIPOS>BOND
     1     1     3 1   
     2     1     7 1   
     3     1    25 1   
     4     2     6 ar  
     5     2     7 1   
     6     2     8 ar  
     7     3     4 ar  
     8     3     5 ar  
     9     4     6 1   
    10     4    13 ar  
    11     5     9 ar  
    12     5    10 ar  
    13     6    15 ar  
    14     7    26 1   
    15     7    27 1   
    16     8    16 ar  
    17     8    17 1   
    18     9    11 ar  
    19     9    28 1   
    20    10    14 ar  
    21    10    23 ar  
    22    11    12 ar  
    23    11    18 1   
    24    12    14 ar  
    25    12    19 1   
    26    13    23 ar  
    27    13    29 1   
    28    14    30 1   
    29    15    24 ar  
    30    15    31 1   
    31    16    20 1   
    32    16    24 ar  
    33    17    21 1   
    34    18    22 1   
    35    19    22 1   
    36    20    21 1   
    37    21    32 1   
    38    21    33 1   
    39    22    34 1   
    40    22    35 1   
    41    23    36 1   
    42    24    37 1   
    43    25    38 1   
    44    25    39 1   
    45    25    40 1   
@<TRIPOS>SUBSTRUCTURE
     1 SGE         1 TEMP              0 ****  ****    0 ROOT
