@<TRIPOS>MOLECULE
molecule
   83    83     1     0     0
SMALL
bcc


@<TRIPOS>ATOM
      1 C17          0.0000     0.0000     0.0000 c3         1 SGF      -0.092100
      2 C16          1.5300     0.0000     0.0000 c3         1 SGF      -0.084400
      3 C15          2.0400     0.0000     1.4430 c3         1 SGF      -0.081400
      4 C14          3.5700    -0.0010     1.4440 c3         1 SGF      -0.082400
      5 C13          4.0800    -0.0000     2.8860 c3         1 SGF      -0.081400
      6 C12          5.6090    -0.0010     2.8860 c3         1 SGF      -0.081400
      7 C11          6.1190    -0.0000     4.3280 c3         1 SGF      -0.081400
      8 C10          7.6490    -0.0010     4.3290 c3         1 SGF      -0.081400
      9 C9           8.1580     0.0000     5.7720 c3         1 SGF      -0.081400
     10 C8           9.6890    -0.0010     5.7720 c3         1 SGF      -0.081400
     11 C7          10.1980     0.0000     7.2150 c3         1 SGF      -0.082400
     12 C6          11.7290    -0.0010     7.2160 c3         1 SGF      -0.078400
     13 C5          12.2370    -0.0000     8.6580 c3         1 SGF      -0.065200
     14 C4          13.7450    -0.0010     8.6580 c2         1 SGF      -0.060200
     15 C3          14.4000     0.9280     9.3090 c2         1 SGF      -0.308200
     16 C2          15.9070     0.9270     9.3090 c3         1 SGF       0.181300
     17 O1          16.3830    -0.1050     8.4440 oh         1 SGF      -0.572800
     18 C1          16.4180     2.2830     8.8150 c3         1 SGF       0.099500
     19 C           17.9480     2.2820     8.8160 c3         1 SGF       0.112400
     20 O           18.4250     3.5030     8.2460 os         1 SGF      -0.439600
     21 C43         19.8500     3.6040     8.1990 c3         1 SGF       0.321900
     22 C44         20.2450     4.8860     7.4620 c3         1 SGF       0.105100
     23 O3          19.7770     4.8260     6.1130 oh         1 SGF      -0.519800
     24 O6          20.3690     3.6420     9.5290 os         1 SGF      -0.464600
     25 C47         21.7940     3.7170     9.5970 c3         1 SGF       0.158100
     26 C48         22.2360     3.7210    11.0620 c3         1 SGF       0.145400
     27 O7          21.8940     2.4720    11.6670 oh         1 SGF      -0.616800
     28 C46         22.2690     5.0040     8.9170 c3         1 SGF       0.113100
     29 O5          21.7430     6.1340     9.6140 oh         1 SGF      -0.596800
     30 C45         21.7720     5.0190     7.4680 c3         1 SGF       0.182100
     31 O4          22.1470     6.2490     6.8470 os         1 SGF      -0.581500
     32 S           22.4980     6.1160     5.3710 s6         1 SGF       1.546300
     33 O10         21.1900     5.9460     4.6110 o          1 SGF      -0.721533
     34 O9          23.0320     7.3700     4.9710 o          1 SGF      -0.721533
     35 O8          23.2030     4.8910     5.2340 o          1 SGF      -0.721533
     36 N           15.9280     3.3440     9.7040 nz         1 SGF      -0.803600
     37 H1          -0.3610     0.0000    -1.0210 hc         1 SGF       0.033033
     38 H2          -0.3610     0.8840     0.5110 hc         1 SGF       0.033033
     39 H3          -0.3610    -0.8850     0.5110 hc         1 SGF       0.033033
     40 H4           1.8910     0.8850    -0.5110 hc         1 SGF       0.040700
     41 H5           1.8910    -0.8850    -0.5110 hc         1 SGF       0.040700
     42 H6           1.6780    -0.8840     1.9540 hc         1 SGF       0.040700
     43 H7           1.6790     0.8850     1.9530 hc         1 SGF       0.040700
     44 H8           3.9310    -0.8850     0.9330 hc         1 SGF       0.041700
     45 H9           3.9320     0.8840     0.9330 hc         1 SGF       0.041700
     46 H10          3.7190     0.8850     3.3960 hc         1 SGF       0.040700
     47 H11          3.7180    -0.8840     3.3970 hc         1 SGF       0.040700
     48 H12          5.9710     0.8830     2.3750 hc         1 SGF       0.042700
     49 H13          5.9700    -0.8860     2.3760 hc         1 SGF       0.042700
     50 H14          5.7580     0.8850     4.8380 hc         1 SGF       0.040700
     51 H15          5.7570    -0.8840     4.8390 hc         1 SGF       0.040700
     52 H16          8.0100    -0.8860     3.8190 hc         1 SGF       0.043200
     53 H17          8.0110     0.8830     3.8180 hc         1 SGF       0.043200
     54 H18          7.7980     0.8850     6.2820 hc         1 SGF       0.041700
     55 H19          7.7970    -0.8840     6.2840 hc         1 SGF       0.041700
     56 H20         10.0500     0.8830     5.2610 hc         1 SGF       0.044700
     57 H21         10.0500    -0.8860     5.2620 hc         1 SGF       0.044700
     58 H22          9.8380     0.8850     7.7250 hc         1 SGF       0.043200
     59 H23          9.8360    -0.8840     7.7270 hc         1 SGF       0.043200
     60 H24         12.0910     0.8820     6.7040 hc         1 SGF       0.049200
     61 H25         12.0890    -0.8870     6.7060 hc         1 SGF       0.049200
     62 H26         11.8760     0.8850     9.1680 hc         1 SGF       0.056200
     63 H27         11.8760    -0.8840     9.1690 hc         1 SGF       0.056200
     64 H28         14.2860    -0.7700     8.1200 ha         1 SGF       0.157000
     65 H29         13.8590     1.6970     9.8470 ha         1 SGF       0.114000
     66 H30         16.2670     0.7500    10.3150 h1         1 SGF       0.048700
     67 H31         16.7340    -0.8120     8.9610 ho         1 SGF       0.431000
     68 H32         16.0570     2.4600     7.8090 hx         1 SGF       0.140700
     69 H33         18.3090     1.4450     8.2300 h1         1 SGF       0.076200
     70 H34         18.3090     2.1920     9.8330 h1         1 SGF       0.076200
     71 H35         20.2600     2.7480     7.6760 h2         1 SGF       0.057700
     72 H36         19.8070     5.7400     7.9640 h1         1 SGF       0.066700
     73 H37         18.9640     5.2980     6.0410 ho         1 SGF       0.401000
     74 H38         22.2230     2.8620     9.0880 h1         1 SGF       0.062700
     75 H39         21.7350     4.5260    11.5870 h1         1 SGF       0.041200
     76 H40         23.3080     3.8670    11.1160 h1         1 SGF       0.041200
     77 H41         22.2640     2.4300    12.5330 ho         1 SGF       0.403000
     78 H42         23.3520     5.0380     8.9260 h1         1 SGF       0.062700
     79 H43         22.4430     6.7310     9.8190 ho         1 SGF       0.412000
     80 H44         22.2080     4.1870     6.9280 h1         1 SGF       0.108700
     81 H45         15.0140     3.6300     9.4120 hn         1 SGF       0.457133
     82 H46         16.5510     4.1270     9.6640 hn         1 SGF       0.457133
     83 HN3         15.8850     3.0000    10.6430 hn         1 SGF       0.457133
@<TRIPOS>BOND
     1    33    32 1
     2    34    32 1
     3    32    31 1
     4    32    35 1
     5    31    30 1
     6    29    28 1
     7    28    30 1
     8    28    25 1
     9    26    25 1
    10    26    27 1
    11    30    22 1
    12    25    24 1
    13    22    23 1
    14    22    21 1
    15    24    21 1
    16    21    20 1
    17    20    19 1
    18    19    18 1
    19    18    36 1
    20    18    16 1
    21    17    16 1
    22    16    15 1
    23    15    14 2
    24    14    13 1
    25    13    12 1
    26    12    11 1
    27     1     2 1
    28     2     3 1
    29    11    10 1
    30    10     9 1
    31     8     9 1
    32     8     7 1
    33     3     4 1
    34     7     6 1
    35     4     5 1
    36     6     5 1
    37     1    37 1
    38     1    38 1
    39     1    39 1
    40     2    40 1
    41     2    41 1
    42     3    42 1
    43     3    43 1
    44     4    44 1
    45     4    45 1
    46     5    46 1
    47     5    47 1
    48     6    48 1
    49     6    49 1
    50     7    50 1
    51     7    51 1
    52     8    52 1
    53     8    53 1
    54     9    54 1
    55     9    55 1
    56    10    56 1
    57    10    57 1
    58    11    58 1
    59    11    59 1
    60    12    60 1
    61    12    61 1
    62    13    62 1
    63    13    63 1
    64    14    64 1
    65    15    65 1
    66    16    66 1
    67    17    67 1
    68    18    68 1
    69    19    69 1
    70    19    70 1
    71    21    71 1
    72    22    72 1
    73    23    73 1
    74    25    74 1
    75    26    75 1
    76    26    76 1
    77    27    77 1
    78    28    78 1
    79    29    79 1
    80    30    80 1
    81    36    81 1
    82    36    82 1
    83    83    36 1
@<TRIPOS>SUBSTRUCTURE
     1 SGF         1 TEMP              0 ****  ****    0 ROOT
