@<TRIPOS>MOLECULE
SGF
   83    83     1     0     0
SMALL
bcc


@<TRIPOS>ATOM
      1 C17         0.5450    0.8090    0.2260 c3        1 SGF     -0.093100
      2 C16         1.4300   -0.0040    1.1360 c3        1 SGF     -0.080400
      3 C15         2.6980    0.7440    1.4900 c3        1 SGF     -0.079400
      4 C14         3.5840   -0.0750    2.4030 c3        1 SGF     -0.079400
      5 C13         4.8510    0.6730    2.7560 c3        1 SGF     -0.079400
      6 C12         5.7370   -0.1460    3.6690 c3        1 SGF     -0.078400
      7 C11         7.0050    0.6030    4.0210 c3        1 SGF     -0.079400
      8 C10         7.8910   -0.2170    4.9340 c3        1 SGF     -0.078400
      9 C9          9.1590    0.5320    5.2840 c3        1 SGF     -0.079400
     10 C8         10.0450   -0.2890    6.1970 c3        1 SGF     -0.078400
     11 C7         11.3130    0.4610    6.5460 c3        1 SGF     -0.081400
     12 C6         12.1990   -0.3620    7.4580 c3        1 SGF     -0.073400
     13 C5         13.4700    0.3930    7.8060 c3        1 SGF     -0.081200
     14 C4         14.3320   -0.3990    8.7130 c2        1 SGF     -0.120200
     15 C3         15.6490   -0.6060    8.6280 c2        1 SGF     -0.266200
     16 C2         16.6120   -0.1300    7.5920 c3        1 SGF      0.166300
     17 O1         16.0460    0.0150    6.2970 oh        1 SGF     -0.613800
     18 C1         17.2010    1.2570    7.9350 c3        1 SGF      0.082500
     19 C          17.9790    1.1970    9.2680 c3        1 SGF      0.122400
     20 O          18.2870    2.4990    9.7140 os        1 SGF     -0.414600
     21 C43        19.4180    3.1050    9.0770 c3        1 SGF      0.327900
     22 C44        18.9560    4.4170    8.4210 c3        1 SGF      0.084100
     23 O3         18.1310    4.0450    7.3290 oh        1 SGF     -0.715800
     24 O6         20.2440    3.3230   10.2010 os        1 SGF     -0.426600
     25 C47        21.4120    4.1050    9.9000 c3        1 SGF      0.107100
     26 C48        22.0980    4.3220   11.2530 c3        1 SGF      0.140400
     27 O7         22.4460    3.0900   11.8490 oh        1 SGF     -0.603800
     28 C46        21.1000    5.4390    9.2140 c3        1 SGF      0.109100
     29 O5         20.4950    6.3070   10.1560 oh        1 SGF     -0.611800
     30 C45        20.1920    5.2310    7.9840 c3        1 SGF      0.172100
     31 O4         19.7740    6.4670    7.5290 os        1 SGF     -0.613500
     32 S          19.8050    6.8930    5.8210 s6        1 SGF      1.715300
     33 O10        18.6780    6.1550    5.4420 o         1 SGF     -0.736867
     34 O9         19.6820    8.2620    5.8750 o         1 SGF     -0.736867
     35 O8         21.0160    6.3340    5.4500 o         1 SGF     -0.736867
     36 N          16.1360    2.3060    7.9620 n4        1 SGF     -0.825600
     37 H1          0.2500    1.7680    0.7170 hc        1 SGF      0.033033
     38 H2         -0.3830    0.2390   -0.0220 hc        1 SGF      0.033033
     39 H3          1.0750    1.0520   -0.7260 hc        1 SGF      0.033033
     40 H4          1.6950   -0.9730    0.6360 hc        1 SGF      0.038700
     41 H5          0.8720   -0.2580    2.0750 hc        1 SGF      0.038700
     42 H6          3.2580    0.9990    0.5510 hc        1 SGF      0.039700
     43 H7          2.4350    1.7130    1.9900 hc        1 SGF      0.039700
     44 H8          3.8460   -1.0440    1.9030 hc        1 SGF      0.039700
     45 H9          3.0240   -0.3290    3.3410 hc        1 SGF      0.039700
     46 H10         5.4120    0.9270    1.8170 hc        1 SGF      0.040700
     47 H11         4.5890    1.6430    3.2560 hc        1 SGF      0.040700
     48 H12         5.9990   -1.1150    3.1690 hc        1 SGF      0.039700
     49 H13         5.1770   -0.4000    4.6080 hc        1 SGF      0.039700
     50 H14         7.5640    0.8570    3.0820 hc        1 SGF      0.040700
     51 H15         6.7430    1.5720    4.5210 hc        1 SGF      0.040700
     52 H16         7.3320   -0.4710    5.8730 hc        1 SGF      0.040700
     53 H17         8.1530   -1.1870    4.4330 hc        1 SGF      0.040700
     54 H18         9.7180    0.7850    4.3450 hc        1 SGF      0.042200
     55 H19         8.8970    1.5010    5.7850 hc        1 SGF      0.042200
     56 H20         9.4860   -0.5410    7.1370 hc        1 SGF      0.042700
     57 H21        10.3070   -1.2580    5.6960 hc        1 SGF      0.042700
     58 H22        11.0510    1.4290    7.0480 hc        1 SGF      0.042700
     59 H23        11.8700    0.7150    5.6060 hc        1 SGF      0.042700
     60 H24        11.6410   -0.6160    8.3970 hc        1 SGF      0.049700
     61 H25        12.4630   -1.3290    6.9550 hc        1 SGF      0.049700
     62 H26        13.1890    1.3510    8.3270 hc        1 SGF      0.052700
     63 H27        14.0050    0.6670    6.8570 hc        1 SGF      0.052700
     64 H28        13.7810   -0.8610    9.5570 ha        1 SGF      0.142000
     65 H29        16.1390   -1.2200    9.4080 ha        1 SGF      0.144000
     66 H30        17.4810   -0.8510    7.5370 h1        1 SGF      0.080700
     67 H31        15.7350   -0.8560    6.0190 ho        1 SGF      0.437000
     68 H32        17.9150    1.5760    7.1100 hx        1 SGF      0.143700
     69 H33        18.8950    0.5700    9.1120 h1        1 SGF      0.081700
     70 H34        17.3450    0.7580   10.0860 h1        1 SGF      0.081700
     71 H35        19.9130    2.4200    8.3360 h2        1 SGF      0.047700
     72 H36        18.3510    5.0240    9.1500 h1        1 SGF      0.079700
     73 H37        18.1510    4.7680    6.6710 ho        1 SGF      0.500000
     74 H38        22.0680    3.4940    9.2170 h1        1 SGF      0.053700
     75 H39        21.4260    4.9180   11.9250 h1        1 SGF      0.070700
     76 H40        23.0680    4.8630   11.0950 h1        1 SGF      0.070700
     77 H41        21.6220    2.6190   12.0200 ho        1 SGF      0.407000
     78 H42        22.0700    5.9010    8.8700 h1        1 SGF      0.066700
     79 H43        20.0900    7.0250    9.6440 ho        1 SGF      0.441000
     80 H44        20.7550    4.6710    7.1840 h1        1 SGF      0.061700
     81 H45        16.5690    3.1960    8.2840 hn        1 SGF      0.468800
     82 H46        15.3800    2.0280    8.5880 hn        1 SGF      0.468800
     83 HN3        15.7750    2.4300    7.0120 hn        1 SGF      0.468800
@<TRIPOS>BOND
     1    1    2 1   
     2    1   37 1   
     3    1   38 1   
     4    1   39 1   
     5    2    3 1   
     6    2   40 1   
     7    2   41 1   
     8    3    4 1   
     9    3   42 1   
    10    3   43 1   
    11    4    5 1   
    12    4   44 1   
    13    4   45 1   
    14    5    6 1   
    15    5   46 1   
    16    5   47 1   
    17    6    7 1   
    18    6   48 1   
    19    6   49 1   
    20    7    8 1   
    21    7   50 1   
    22    7   51 1   
    23    8    9 1   
    24    8   52 1   
    25    8   53 1   
    26    9   10 1   
    27    9   54 1   
    28    9   55 1   
    29   10   11 1   
    30   10   56 1   
    31   10   57 1   
    32   11   12 1   
    33   11   58 1   
    34   11   59 1   
    35   12   13 1   
    36   12   60 1   
    37   12   61 1   
    38   13   14 1   
    39   13   62 1   
    40   13   63 1   
    41   14   15 2   
    42   14   64 1   
    43   15   16 1   
    44   15   65 1   
    45   16   17 1   
    46   16   18 1   
    47   16   66 1   
    48   17   67 1   
    49   18   19 1   
    50   18   36 1   
    51   18   68 1   
    52   19   20 1   
    53   19   69 1   
    54   19   70 1   
    55   20   21 1   
    56   21   22 1   
    57   21   24 1   
    58   21   71 1   
    59   22   23 1   
    60   22   30 1   
    61   22   72 1   
    62   23   73 1   
    63   24   25 1   
    64   25   26 1   
    65   25   28 1   
    66   25   74 1   
    67   26   27 1   
    68   26   75 1   
    69   26   76 1   
    70   27   77 1   
    71   28   29 1   
    72   28   30 1   
    73   28   78 1   
    74   29   79 1   
    75   30   31 1   
    76   30   80 1   
    77   31   32 1   
    78   32   33 1   
    79   32   34 1   
    80   32   35 1   
    81   36   81 1   
    82   36   82 1   
    83   36   83 1   
@<TRIPOS>SUBSTRUCTURE
     1 SGF         1 TEMP              0 ****  ****    0 ROOT
