@<TRIPOS>MOLECULE
SGI
   24    24     1     0     0
SMALL
bcc


@<TRIPOS>ATOM
      1 O            0.0000     0.0000     0.0000 o          1 SGI      -0.389100
      2 C            1.2130     0.0000     0.0000 c          1 SGI       0.305100
      3 N            1.8870     0.0000     1.1670 nz         1 SGI       0.194600
      4 CA           1.9670    -0.0050    -1.3050 c3         1 SGI      -0.089400
      5 CB           0.9720    -0.0110    -2.4680 c3         1 SGI       0.056900
      6 CG           1.7240    -0.0170    -3.7730 ca         1 SGI      -0.140300
      7 CD1          2.0700    -1.2170    -4.3650 ca         1 SGI      -0.077500
      8 CE1          2.7610    -1.2250    -5.5620 ca         1 SGI      -0.134500
      9 CZ           3.1080    -0.0260    -6.1680 ca         1 SGI       0.155100
     10 OH           3.7870    -0.0310    -7.3450 oh         1 SGI      -0.496100
     11 CE2          2.7600     1.1760    -5.5730 ca         1 SGI      -0.134500
     12 CD2          2.0640     1.1790    -4.3790 ca         1 SGI      -0.077500
     13 HN1          2.4730     0.8100     1.2140 hn         1 SGI       0.247800
     14 HN2          1.2360     0.0150     1.9280 hn         1 SGI       0.247800
     15 HA1          2.5900    -0.8890    -1.3580 hc         1 SGI       0.060200
     16 HA2          2.5890     0.8800    -1.3660 hc         1 SGI       0.060200
     17 HB1          0.3490     0.8740    -2.4140 hc         1 SGI       0.037700
     18 HB2          0.3490    -0.8950    -2.4060 hc         1 SGI       0.037700
     19 HD1          1.7860    -2.1520    -3.8980 ha         1 SGI       0.109500
     20 HE1          3.0750    -2.1640    -6.0000 ha         1 SGI       0.126000
     21 HOH          3.1740    -0.0430    -8.0620 ho         1 SGI       0.417000
     22 HE2          3.0710     2.1130    -6.0210 ha         1 SGI       0.126000
     23 HD2          1.7700     2.1990    -4.1610 ha         1 SGI       0.109500
     24 HN3          2.4800    -0.8050     1.2100 hn         1 SGI       0.247800
@<TRIPOS>BOND
     1     1     2 2   
     2     2     3 1   
     3     2     4 1   
     4     3    13 1   
     5     3    14 1   
     6     3    24 1   
     7     4     5 1   
     8     4    15 1   
     9     4    16 1   
    10     5     6 1   
    11     5    17 1   
    12     5    18 1   
    13     6     7 ar  
    14     6    12 ar  
    15     7     8 ar  
    16     7    19 1   
    17     8     9 ar  
    18     8    20 1   
    19     9    10 1   
    20     9    11 ar  
    21    10    21 1   
    22    11    12 ar  
    23    11    22 1   
    24    12    23 1   
@<TRIPOS>SUBSTRUCTURE
     1 SGI         1 TEMP              0 ****  ****    0 ROOT
