@<TRIPOS>MOLECULE
molecule
   24    24     1     0     0
SMALL
bcc


@<TRIPOS>ATOM
      1 O1           0.0000     0.0000     0.0000 oh         1 SGJ      -0.619800
      2 C1           1.4290     0.0000     0.0000 c3         1 SGJ       0.135400
      3 C2           1.9390     0.0000     1.4420 c3         1 SGJ       0.185500
      4 N1           1.5510    -1.2550     2.0980 n7         1 SGJ      -0.819200
      5 C3           1.9870    -1.2780     3.5000 c3         1 SGJ       0.135800
      6 C4           3.5140    -1.1900     3.5630 c3         1 SGJ       0.139100
      7 O2           3.9360    -1.1920     4.9280 oh         1 SGJ      -0.601800
      8 C5           3.9730     0.1070     2.8870 c3         1 SGJ       0.155100
      9 O3           5.4010     0.1680     2.8930 oh         1 SGJ      -0.601800
     10 C6           3.4650     0.1270     1.4430 c3         1 SGJ       0.043400
     11 S1           3.9430     1.6900     0.6560 sh         1 SGJ      -0.422900
     12 H1          -0.3140     0.1230    -0.8800 ho         1 SGJ       0.408000
     13 H2           1.7900     0.8840    -0.5110 h1         1 SGJ       0.041700
     14 H3           1.7900    -0.8840    -0.5110 h1         1 SGJ       0.041700
     15 H4           1.5090     0.8350     1.9810 h1         1 SGJ       0.048700
     16 H5           0.5570    -1.3600     2.0570 hn         1 SGJ       0.383800
     17 H7           1.5560    -0.4340     4.0240 h1         1 SGJ       0.046200
     18 H8           1.6610    -2.2020     3.9620 h1         1 SGJ       0.046200
     19 H9           3.9450    -2.0380     3.0450 h1         1 SGJ       0.057700
     20 H10          4.2990    -2.0350     5.1430 ho         1 SGJ       0.409000
     21 H11          3.5670     0.9560     3.4240 h1         1 SGJ       0.059700
     22 H12          5.6800     0.9490     3.3390 ho         1 SGJ       0.416000
     23 H13          3.8960    -0.7040     0.8980 h1         1 SGJ       0.087700
     24 H14          4.9340     1.4700    -0.1990 hs         1 SGJ       0.227800
@<TRIPOS>BOND
     1     5     4 1
     2     5     6 1
     3     7     6 1
     4     3     4 1
     5     3    10 1
     6     3     2 1
     7    11    10 1
     8     8     6 1
     9     8    10 1
    10     8     9 1
    11     2     1 1
    12     1    12 1
    13     2    13 1
    14     2    14 1
    15     3    15 1
    16     4    16 1
    17     5    17 1
    18     5    18 1
    19     6    19 1
    20     7    20 1
    21     8    21 1
    22     9    22 1
    23    10    23 1
    24    11    24 1
@<TRIPOS>SUBSTRUCTURE
     1 SGJ         1 TEMP              0 ****  ****    0 ROOT
