@<TRIPOS>MOLECULE
molecule
   15    14     1     0     0
SMALL
bcc


@<TRIPOS>ATOM
      1 C1           0.0000     0.0000     0.0000 c3         1 SGL      -0.023300
      2 S1          -0.6040    -1.4820     0.8550 ss         1 SGL      -0.015300
      3 C2           1.5290     0.0000     0.0000 c3         1 SGL       0.154100
      4 O2           2.0060     0.0000     1.3480 oh         1 SGL      -0.588800
      5 C3           2.0390     1.2500    -0.7210 c3         1 SGL       0.118400
      6 O3           3.4630     1.1930    -0.8240 oh         1 SGL      -0.610800
      7 O4          -0.3570    -1.1560     2.3210 oh         1 SGL      -0.566800
      8 H11         -0.3610    -0.0000    -1.0210 h1         1 SGL       0.081200
      9 H12         -0.3610     0.8840     0.5110 h1         1 SGL       0.081200
     10 H2           1.8910    -0.8840    -0.5110 h1         1 SGL       0.051700
     11 HO2          2.7430    -0.5840     1.4210 ho         1 SGL       0.413000
     12 H31          1.7520     2.1320    -0.1610 h1         1 SGL       0.028200
     13 H32          1.6070     1.2950    -1.7130 h1         1 SGL       0.028200
     14 HO3          3.7700     1.9140    -1.3480 ho         1 SGL       0.404000
     15 HO4         -0.9100    -1.6960     2.8610 ho         1 SGL       0.446000
@<TRIPOS>BOND
     1     1     2 1
     2     1     3 1
     3     1     8 1
     4     1     9 1
     5     2     7 1
     6     3     4 1
     7     3     5 1
     8     3    10 1
     9     4    11 1
    10     5     6 1
    11     5    12 1
    12     5    13 1
    13     6    14 1
    14     7    15 1
@<TRIPOS>SUBSTRUCTURE
     1 SGL         1 TEMP              0 ****  ****    0 ROOT
