@<TRIPOS>MOLECULE
SGL
   15    14     1     0     0
SMALL
bcc


@<TRIPOS>ATOM
      1 C1          0.0550    0.3790    0.7300 c3        1 SGL     -0.068300
      2 S1         -0.8060   -0.9470   -0.0320 ss        1 SGL     -0.016300
      3 C2          1.5610    0.3300    0.5350 c3        1 SGL      0.152100
      4 O2          2.1230    1.2050    1.5040 oh        1 SGL     -0.606800
      5 C3          1.9550    0.7710   -0.8790 c3        1 SGL      0.090400
      6 O3          3.3720    0.7050   -0.9300 oh        1 SGL     -0.611800
      7 O4         -0.3030   -2.2720    0.9190 oh        1 SGL     -0.511800
      8 H11        -0.3650    1.3130    0.2780 h1        1 SGL      0.091200
      9 H12        -0.1530    0.4100    1.8290 h1        1 SGL      0.091200
     10 H2          1.9410   -0.7170    0.7180 h1        1 SGL      0.064700
     11 HO2         3.0710    1.2490    1.3170 ho        1 SGL      0.422000
     12 H31         1.6180    1.8250   -1.0680 h1        1 SGL      0.040200
     13 H32         1.5000    0.0830   -1.6380 h1        1 SGL      0.040200
     14 HO3         3.6300    0.9440   -1.8280 ho        1 SGL      0.409000
     15 HO4        -0.9950   -2.4120    1.5710 ho        1 SGL      0.412000
@<TRIPOS>BOND
     1    1    2 1   
     2    1    3 1   
     3    1    8 1   
     4    1    9 1   
     5    2    7 1   
     6    3    4 1   
     7    3    5 1   
     8    3   10 1   
     9    4   11 1   
    10    5    6 1   
    11    5   12 1   
    12    5   13 1   
    13    6   14 1   
    14    7   15 1   
@<TRIPOS>SUBSTRUCTURE
     1 SGL         1 TEMP              0 ****  ****    0 ROOT
