@<TRIPOS>MOLECULE
SGL
   15    14     1     0     0
SMALL
bcc


@<TRIPOS>ATOM
      1 C1          0.0460    0.3760    0.7110 c3        1 SGL     -0.068300
      2 S1         -0.8030   -0.9410   -0.0810 ss        1 SGL     -0.016300
      3 C2          1.5550    0.3250    0.5430 c3        1 SGL      0.152100
      4 O2          2.1010    1.1880    1.5320 oh        1 SGL     -0.606800
      5 C3          1.9760    0.7830   -0.8590 c3        1 SGL      0.090400
      6 O3          3.3930    0.7130   -0.8850 oh        1 SGL     -0.611800
      7 O4         -0.3180   -2.2770    0.8620 oh        1 SGL     -0.511800
      8 H11        -0.1820    0.3950    1.8060 h1        1 SGL      0.091200
      9 H12        -0.3650    1.3150    0.2620 h1        1 SGL      0.091200
     10 H2          1.9290   -0.7240    0.7210 h1        1 SGL      0.064700
     11 HO2         3.0510    1.2320    1.3630 ho        1 SGL      0.422000
     12 H31         1.6440    1.8390   -1.0410 h1        1 SGL      0.040200
     13 H32         1.5330    0.1040   -1.6330 h1        1 SGL      0.040200
     14 HO3         3.6670    0.9620   -1.7740 ho        1 SGL      0.409000
     15 HO4        -1.0220   -2.4240    1.5000 ho        1 SGL      0.412000
@<TRIPOS>BOND
     1    1    2 1   
     2    1    3 1   
     3    1    8 1   
     4    1    9 1   
     5    2    7 1   
     6    3    4 1   
     7    3    5 1   
     8    3   10 1   
     9    4   11 1   
    10    5    6 1   
    11    5   12 1   
    12    5   13 1   
    13    6   14 1   
    14    7   15 1   
@<TRIPOS>SUBSTRUCTURE
     1 SGL         1 TEMP              0 ****  ****    0 ROOT
