@<TRIPOS>MOLECULE
molecule
   14    13     1     0     0
SMALL
bcc


@<TRIPOS>ATOM
      1 C1           0.0000     0.0000     0.0000 c3         1 SGM       0.024700
      2 C2           1.5300     0.0000     0.0000 c3         1 SGM       0.168100
      3 O2           2.0070     0.0000     1.3460 oh         1 SGM      -0.587800
      4 C3           2.0400     1.2490    -0.7220 c3         1 SGM       0.132400
      5 O3           3.4640     1.1920    -0.8260 oh         1 SGM      -0.604800
      6 S1          -0.6050    -1.4800     0.8560 sh         1 SGM      -0.413900
      7 H11         -0.3610     0.8850     0.5100 h1         1 SGM       0.063700
      8 H12         -0.3610    -0.0010    -1.0210 h1         1 SGM       0.063700
      9 H2           1.8910    -0.8850    -0.5110 h1         1 SGM       0.056700
     10 HO2          2.5070    -0.7840     1.5020 ho         1 SGM       0.414000
     11 H31          1.7540     2.1310    -0.1630 h1         1 SGM       0.029700
     12 H32          1.6070     1.2940    -1.7140 h1         1 SGM       0.029700
     13 HO3          3.7710     1.9200    -1.3400 ho         1 SGM       0.405000
     14 HS1         -1.9230    -1.5610     0.7230 hs         1 SGM       0.217800
@<TRIPOS>BOND
     1     1     2 1
     2     1     6 1
     3     1     7 1
     4     1     8 1
     5     2     3 1
     6     2     4 1
     7     2     9 1
     8     3    10 1
     9     4     5 1
    10     4    11 1
    11     4    12 1
    12     5    13 1
    13     6    14 1
@<TRIPOS>SUBSTRUCTURE
     1 SGM         1 TEMP              0 ****  ****    0 ROOT
