@<TRIPOS>MOLECULE
SGM
   14    13     1     0     0
SMALL
bcc


@<TRIPOS>ATOM
      1 C1         -0.0010   -0.0320    0.4430 c3        1 SGM      0.001700
      2 C2          1.5140    0.0090    0.3340 c3        1 SGM      0.157100
      3 O2          1.9880    0.5610    1.5550 oh        1 SGM     -0.603800
      4 C3          1.9580    0.8690   -0.8550 c3        1 SGM      0.088400
      5 O3          3.3770    0.8440   -0.8490 oh        1 SGM     -0.612800
      6 S1         -0.6140   -1.0920   -0.8370 sh        1 SGM     -0.378900
      7 H11        -0.4240    0.9960    0.3400 h1        1 SGM      0.077200
      8 H12        -0.2820   -0.4180    1.4530 h1        1 SGM      0.077200
      9 H2          1.9290   -1.0330    0.2150 h1        1 SGM      0.065700
     10 HO2         2.9400    0.6880    1.4450 ho        1 SGM      0.423000
     11 H31         1.5940    1.9240   -0.7320 h1        1 SGM      0.043700
     12 H32         1.5580    0.4370   -1.8100 h1        1 SGM      0.043700
     13 HO3         3.6670    1.3670   -1.6050 ho        1 SGM      0.410000
     14 HS1        -1.8780   -1.1540   -0.4560 hs        1 SGM      0.207800
@<TRIPOS>BOND
     1    1    2 1   
     2    1    6 1   
     3    1    7 1   
     4    1    8 1   
     5    2    3 1   
     6    2    4 1   
     7    2    9 1   
     8    3   10 1   
     9    4    5 1   
    10    4   11 1   
    11    4   12 1   
    12    5   13 1   
    13    6   14 1   
@<TRIPOS>SUBSTRUCTURE
     1 SGM         1 TEMP              0 ****  ****    0 ROOT
