@<TRIPOS>MOLECULE
SGP
   36    39     1     0     0
SMALL
bcc


@<TRIPOS>ATOM
      1 P            0.0000     0.0000     0.0000 p5         1 SGP       0.682200
      2 S1P         -0.6580     1.7270     0.2320 s          1 SGP      -0.202000
      3 O1P         -0.5690    -0.6910    -1.3390 oh         1 SGP      -0.607400
      4 O5'          5.4690    -0.6860     2.5450 oh         1 SGP      -0.581800
      5 C5'          4.2700     0.0660     2.3510 c3         1 SGP       0.224400
      6 C4'          3.2410    -0.7960     1.6170 c3         1 SGP       0.166100
      7 O4'          2.9190    -1.9530     2.4060 os         1 SGP      -0.372600
      8 C3'          1.9360     0.0000     1.4140 c3         1 SGP       0.128100
      9 O3'          1.6310     0.0000     0.0000 os         1 SGP      -0.386200
     10 C2'          0.8570    -0.8630     2.1180 c3         1 SGP       0.124100
     11 O2'         -0.3240    -0.9200     1.3010 os         1 SGP      -0.399200
     12 C1'          1.5280    -2.2550     2.1670 c3         1 SGP       0.113800
     13 N9           0.9780    -3.0560     3.2620 na         1 SGP       0.335100
     14 C8           1.4210    -3.0700     4.5530 cc         1 SGP       0.328400
     15 N7           0.7030    -3.8950     5.2560 nd         1 SGP      -0.503000
     16 C5          -0.2410    -4.4580     4.4620 cd         1 SGP       0.286800
     17 C6          -1.2730    -5.4010     4.6770 c          1 SGP       0.522000
     18 O6          -1.4550    -5.8900     5.7780 o          1 SGP      -0.563500
     19 N1          -2.0560    -5.7430     3.6300 ns         1 SGP      -0.003400
     20 C2          -1.8410    -5.1940     2.4010 cd         1 SGP      -0.024200
     21 N2          -2.6490    -5.5640     1.3560 nz         1 SGP       0.226400
     22 N3          -0.8860    -4.3170     2.1900 nc         1 SGP      -0.334100
     23 C4          -0.0740    -3.9260     3.1790 cc         1 SGP      -0.228200
     24 HOP1        -0.9400    -0.0300    -1.9000 ho         1 SGP       0.481000
     25 HO5'         6.1250    -0.1360     2.9390 ho         1 SGP       0.408000
     26 H5'1         3.8710     0.3640     3.3130 h1         1 SGP       0.002200
     27 H5'2         4.4880     0.9480     1.7620 h1         1 SGP       0.002200
     28 H4'          3.6330    -1.1060     0.6560 h1         1 SGP       0.064700
     29 H3'          1.9950     1.0010     1.8250 h1         1 SGP       0.084700
     30 H2'          0.6380    -0.4920     3.1120 h1         1 SGP       0.074700
     31 H1'          1.4100    -2.7640     1.2180 h2         1 SGP       0.058700
     32 H8           2.2470    -2.4810     4.9340 h5         1 SGP       0.057100
     33 HN1         -2.7980    -6.4030     3.7580 hn         1 SGP       0.189500
     34 HN21        -2.2750    -5.2030     0.5010 hn         1 SGP       0.215800
     35 HN22        -2.6940    -6.5620     1.3060 hn         1 SGP       0.215800
     36 H23         -3.5690    -5.1960     1.4990 hn         1 SGP       0.215800
@<TRIPOS>BOND
     1     1     2 2   
     2     1     3 1   
     3     1     9 1   
     4     1    11 1   
     5     3    24 1   
     6     4     5 1   
     7     4    25 1   
     8     5     6 1   
     9     5    26 1   
    10     5    27 1   
    11     6     7 1   
    12     6     8 1   
    13     6    28 1   
    14     7    12 1   
    15     8     9 1   
    16     8    10 1   
    17     8    29 1   
    18    10    11 1   
    19    10    12 1   
    20    10    30 1   
    21    12    13 1   
    22    12    31 1   
    23    13    14 1   
    24    13    23 1   
    25    14    15 2   
    26    14    32 1   
    27    15    16 1   
    28    16    17 1   
    29    16    23 2   
    30    17    18 2   
    31    17    19 1   
    32    19    20 1   
    33    19    33 1   
    34    20    21 1   
    35    20    22 2   
    36    21    34 1   
    37    21    35 1   
    38    21    36 1   
    39    22    23 1   
@<TRIPOS>SUBSTRUCTURE
     1 SGP         1 TEMP              0 ****  ****    0 ROOT
