@<TRIPOS>MOLECULE
SGR
   24    23     1     0     0
SMALL
bcc


@<TRIPOS>ATOM
      1 N           0.1020   -0.1470    0.6210 n4        1 SGR     -0.822600
      2 CA          1.5300    0.1890    0.3690 c3        1 SGR     -0.103500
      3 C           2.1200    0.9770    1.6350 c         1 SGR      0.958600
      4 O           1.4260    0.9390    2.6660 o         1 SGR     -0.766300
      5 CB          1.7470    0.9900   -0.9220 c3        1 SGR      0.172400
      6 OG          2.9290    0.4980   -1.5330 os        1 SGR     -0.547200
      7 N4          5.0470    1.6860   -0.5670 n4        1 SGR     -0.878700
      8 P1          4.0540    1.5530   -1.9650 p5        1 SGR      1.505400
      9 O5          3.5750    2.8590   -2.3750 o         1 SGR     -0.733300
     10 O2          4.9810    0.7180   -2.9450 os        1 SGR     -0.565200
     11 C3          5.0130    1.0810   -4.3210 c3        1 SGR      0.141700
     12 OXT         3.2280    1.5350    1.4390 o         1 SGR     -0.766300
     13 H          -0.5150    0.5640    0.2250 hn        1 SGR      0.463467
     14 HBC1        0.9080    0.8370   -1.6610 h1        1 SGR      0.082700
     15 HBC2        1.8640    2.0870   -0.6950 h1        1 SGR      0.082700
     16 H4N1        6.0080    1.3710   -0.7040 hn        1 SGR      0.497467
     17 H4N2        5.0810    2.6550   -0.2240 hn        1 SGR      0.497467
     18 H3C1        4.4570    2.0390   -4.4810 h1        1 SGR      0.079367
     19 H3C2        4.5630    0.2360   -4.9060 h1        1 SGR      0.079367
     20 H3C3        6.0950    1.1890   -4.6000 h1        1 SGR      0.079367
     21 H1          2.1080   -0.7790    0.3070 hx        1 SGR      0.120700
     22 H2         -0.0220   -0.1430    1.6600 hn        1 SGR      0.463467
     23 HN3        -0.1410   -1.0610    0.2430 hn        1 SGR      0.463467
     24 H43         4.6550    1.1410    0.2380 hn        1 SGR      0.497467
@<TRIPOS>BOND
     1    1    2 1
     2    1   13 1
     3    1   22 1
     4    1   23 1
     5    2    3 1
     6    2    5 1
     7    2   21 1
     8    3    4 1
     9    3   12 1
    10    5    6 1
    11    5   14 1
    12    5   15 1
    13    6    8 1
    14    7    8 1
    15    7   16 1
    16    7   17 1
    17    7   24 1
    18    8    9 2
    19    8   10 1
    20   10   11 1
    21   11   18 1
    22   11   19 1
    23   11   20 1
@<TRIPOS>SUBSTRUCTURE
     1 SGR         1 TEMP              0 ****  ****    0 ROOT
