@<TRIPOS>MOLECULE
molecule
   44    46     1     0     0
SMALL
bcc


@<TRIPOS>ATOM
      1 PG           0.0000     0.0000     0.0000 p5         1 SGT       1.313900
      2 O1G          1.6100     0.0000     0.0000 o          1 SGT      -0.606500
      3 O2G         -0.5360     0.0000     1.5190 o          1 SGT      -0.606500
      4 O3G         -0.4940     1.2080    -0.6980 o          1 SGT      -0.606500
      5 O3B         -0.5360    -1.3150    -0.7570 os         1 SGT      -0.714800
      6 PB          -1.9350    -1.7170    -1.4460 p5         1 SGT       1.568800
      7 O1B         -2.0190    -1.0610    -2.9140 o          1 SGT      -0.686500
      8 O2B         -3.0540    -1.2160    -0.6180 o          1 SGT      -0.686500
      9 O3A         -2.0330    -3.3200    -1.5680 os         1 SGT      -0.721800
     10 PA          -3.2370    -4.3470    -1.8600 p5         1 SGT       1.443800
     11 O1A         -4.1580    -4.4820    -0.5470 o          1 SGT      -0.838000
     12 O2A         -4.0540    -3.8430    -2.9860 o          1 SGT      -0.838000
     13 O5'         -2.6310    -5.7900    -2.2400 os         1 SGT      -0.599200
     14 C5'         -3.4420    -6.8900    -2.6550 c3         1 SGT       0.241400
     15 C4'         -2.5520    -8.1020    -2.9380 c3         1 SGT       0.134100
     16 O4'         -1.9740    -8.6050    -1.7140 os         1 SGT      -0.377600
     17 C3'         -3.3990    -9.2920    -3.4580 c3         1 SGT       0.100100
     18 O3'         -3.5730    -9.2130    -4.8740 oh         1 SGT      -0.601800
     19 C2'         -2.5190   -10.5080    -3.0760 c3         1 SGT      -0.159400
     20 C1'         -1.5990    -9.9710    -1.9570 c3         1 SGT       0.267800
     21 N9          -1.7820   -10.7640    -0.7390 na         1 SGT      -0.257900
     22 C8          -2.6110   -10.4620     0.3020 cc         1 SGT       0.415400
     23 N7          -2.5230   -11.3850     1.2170 nc         1 SGT      -0.633000
     24 C5          -1.6370   -12.3290     0.8170 cc         1 SGT       0.142800
     25 C6          -1.1530   -13.5290     1.3880 cs         1 SGT       0.485900
     26 N1          -0.2440   -14.2490     0.6950 ns         1 SGT      -0.398400
     27 C2           0.1890   -13.8190    -0.5240 cc         1 SGT       0.041800
     28 N2           1.1130   -14.5710    -1.2060 nz         1 SGT      -0.606600
     29 N3          -0.2520   -12.7070    -1.0650 nd         1 SGT      -0.704100
     30 C4          -1.1570   -11.9440    -0.4390 cd         1 SGT       0.141800
     31 S6          -1.7060   -14.0560     2.9200 s          1 SGT      -0.845400
     32 H5          -3.9820    -6.6210    -3.5540 h1         1 SGT       0.036200
     33 H6          -4.1460    -7.1350    -1.8690 h1         1 SGT       0.036200
     34 H7          -1.7740    -7.8530    -3.6490 h1         1 SGT       0.065700
     35 H8          -4.3530    -9.3340    -2.9470 h1         1 SGT       0.052700
     36 H9          -4.4140    -9.5720    -5.1080 ho         1 SGT       0.388000
     37 H10         -1.9310   -10.8300    -3.9270 hc         1 SGT       0.055700
     38 H11         -3.1350   -11.3170    -2.7030 hc         1 SGT       0.055700
     39 H12         -0.5660   -10.0150    -2.2800 h2         1 SGT       0.062700
     40 H13         -3.2460    -9.5860     0.3590 h5         1 SGT       0.077100
     41 H14          0.1130   -15.1020     1.0780 hn         1 SGT       0.294500
     42 H15          1.9640   -14.6100    -0.6820 hn         1 SGT       0.356133
     43 H16          0.7580   -15.4980    -1.3360 hn         1 SGT       0.356133
     44 H23          1.2890   -14.1540    -2.0990 hn         1 SGT       0.356133
@<TRIPOS>BOND
     1    28    27 1
     2    27    26 1
     3    27    29 2
     4    26    25 1
     5    29    30 1
     6    19    20 1
     7    19    17 1
     8    25    31 2
     9    25    24 1
    10    30    24 2
    11    30    21 1
    12    20    21 1
    13    20    16 1
    14    24    23 1
    15    21    22 1
    16    18    17 1
    17    17    15 1
    18    16    15 1
    19    23    22 2
    20    15    14 1
    21     7     6 1
    22    14    13 1
    23    13    10 1
    24     6     9 1
    25     6     8 1
    26     6     5 1
    27     9    10 1
    28     5     1 1
    29    10    12 1
    30    10    11 1
    31     1     3 1
    32     1     4 1
    33     1     2 1
    34    14    32 1
    35    14    33 1
    36    15    34 1
    37    17    35 1
    38    18    36 1
    39    19    37 1
    40    19    38 1
    41    20    39 1
    42    22    40 1
    43    26    41 1
    44    28    42 1
    45    28    43 1
    46    44    28 1
@<TRIPOS>SUBSTRUCTURE
     1 SGT         1 TEMP              0 ****  ****    0 ROOT
