@<TRIPOS>MOLECULE
SGV
   38    40     1     0     0
SMALL
bcc


@<TRIPOS>ATOM
      1 N1           0.0000     0.0000     0.0000 nb         1 SGV      -0.690000
      2 C2           1.3200     0.0000     0.0000 ca         1 SGV       0.711900
      3 N3           2.0310     0.0000     1.1070 nb         1 SGV      -0.641000
      4 C4           1.4350     0.0010     2.2990 ca         1 SGV       0.308800
      5 C5           0.0320     0.0010     2.3460 ca         1 SGV      -0.345400
      6 C6          -0.6840    -0.0000     1.1410 ca         1 SGV       0.578200
      7 N6          -2.0680     0.0000     1.1400 nv         1 SGV      -0.491500
      8 C7          -0.3280     0.0010     3.7720 cc         1 SGV      -0.304400
      9 C8           0.8480     0.0010     4.4630 cd         1 SGV      -0.183100
     10 N9           1.8890     0.0010     3.5920 na         1 SGV       0.401900
     11 C1'          3.3020     0.0010     3.9800 c3         1 SGV       0.113800
     12 C10         -1.6840     0.0010     4.3400 c          1 SGV       0.391300
     13 N11         -1.9310    -0.6450     5.4960 nz         1 SGV       0.203600
     14 O12         -2.5840     0.5850     3.7650 o          1 SGV      -0.465100
     15 C2'          3.8620     1.4460     4.0030 c3         1 SGV       0.137100
     16 O2'          4.3200     1.8360     2.7070 oh         1 SGV      -0.531800
     17 C3'          5.0450     1.3200     4.9920 c3         1 SGV       0.132100
     18 O3'          6.2750     1.1570     4.2830 oh         1 SGV      -0.542800
     19 C4'          4.7220     0.0540     5.8080 c3         1 SGV       0.153100
     20 O4'          3.4540    -0.4400     5.3470 os         1 SGV      -0.402600
     21 C5'          4.6350     0.4010     7.2960 c3         1 SGV       0.221400
     22 O5'          4.4500    -0.7950     8.0540 oh         1 SGV      -0.584800
     23 H2           1.8400     0.0000    -0.9510 h5         1 SGV       0.014100
     24 HN6         -2.5690    -0.3120     1.9480 hn         1 SGV       0.279800
     25 HN6A        -2.5670     0.2710     0.3160 hn         1 SGV       0.279800
     26 H8           0.9370     0.0010     5.5420 h4         1 SGV       0.148000
     27 H1'          3.8870    -0.6220     3.3130 h2         1 SGV       0.092700
     28 HN11        -2.9160    -0.7920     5.5930 hn         1 SGV       0.243467
     29 HN1A        -1.5980    -0.0950     6.2630 hn         1 SGV       0.243467
     30 H2'          3.1190     2.1380     4.3810 h1         1 SGV       0.013700
     31 HO2'         4.2340     2.7700     2.6110 ho         1 SGV       0.399000
     32 H3'          5.0870     2.1860     5.6420 h1         1 SGV       0.018700
     33 HO3'         6.9050     1.7850     4.5970 ho         1 SGV       0.400000
     34 H4'          5.4880    -0.6940     5.6440 h1         1 SGV       0.064700
     35 H5'          3.7970     1.0670     7.4630 h1         1 SGV      -0.005300
     36 H5'A         5.5510     0.8880     7.6070 h1         1 SGV      -0.005300
     37 HO5'         4.6750    -0.6340     8.9560 ho         1 SGV       0.401000
     38 H113        -1.4560    -1.5260     5.4940 hn         1 SGV       0.243467
@<TRIPOS>BOND
     1     1     2 ar  
     2     1     6 ar  
     3     2     3 ar  
     4     2    23 1   
     5     3     4 ar  
     6     4     5 ar  
     7     4    10 1   
     8     5     6 ar  
     9     5     8 1   
    10     6     7 1   
    11     7    24 1   
    12     7    25 1   
    13     8     9 2   
    14     8    12 1   
    15     9    10 1   
    16     9    26 1   
    17    10    11 1   
    18    11    15 1   
    19    11    20 1   
    20    11    27 1   
    21    12    13 1   
    22    12    14 2   
    23    13    28 1   
    24    13    29 1   
    25    13    38 1   
    26    15    16 1   
    27    15    17 1   
    28    15    30 1   
    29    16    31 1   
    30    17    18 1   
    31    17    19 1   
    32    17    32 1   
    33    18    33 1   
    34    19    20 1   
    35    19    21 1   
    36    19    34 1   
    37    21    22 1   
    38    21    35 1   
    39    21    36 1   
    40    22    37 1   
@<TRIPOS>SUBSTRUCTURE
     1 SGV         1 TEMP              0 ****  ****    0 ROOT
