@<TRIPOS>MOLECULE
molecule
   32    34     1     0     0
SMALL
bcc


@<TRIPOS>ATOM
      1 C1           0.0000     0.0000     0.0000 ca         1 SGW      -0.110000
      2 C2           1.3890     0.0000     0.0000 ca         1 SGW      -0.195000
      3 C3           2.0940     0.0000     1.1880 ca         1 SGW       0.133100
      4 C4           1.3970    -0.0000     2.4050 ca         1 SGW      -0.023800
      5 C5          -0.0180     0.0000     2.3980 ca         1 SGW      -0.126600
      6 C6          -0.7050    -0.0010     1.1830 ca         1 SGW      -0.095000
      7 C11         -0.7260    -0.0010     3.6830 c          1 SGW       0.710100
      8 N12         -0.0070    -0.0010     4.8240 ns         1 SGW      -0.434100
      9 O13         -1.9440    -0.0000     3.7190 o          1 SGW      -0.638500
     10 C14          2.1010    -0.0020     6.0900 ca         1 SGW      -0.061800
     11 C15          1.3990    -0.0030     7.2970 ca         1 SGW      -0.107000
     12 C16          2.0880    -0.0090     8.4910 ca         1 SGW      -0.116000
     13 C17          3.4730    -0.0150     8.4960 ca         1 SGW       0.033400
     14 C18          4.1750    -0.0130     7.3020 ca         1 SGW      -0.116000
     15 C19          3.4970    -0.0070     6.1010 ca         1 SGW      -0.107000
     16 Cl           4.3330    -0.0230    10.0030 cl         1 SGW      -0.101400
     17 CAI          1.3690    -0.0010     4.8070 cc         1 SGW       0.083400
     18 CAH          2.0740    -0.0000     3.6480 cd         1 SGW      -0.168200
     19 CAA          4.0910     0.0000    -0.1010 c3         1 SGW       0.128700
     20 OAB          3.4520     0.0000     1.1770 os         1 SGW      -0.328900
     21 H1          -0.5350     0.0000    -0.9420 ha         1 SGW       0.136000
     22 H2           1.9240     0.0010    -0.9420 ha         1 SGW       0.137000
     23 H6          -1.7880    -0.0010     1.1710 ha         1 SGW       0.157000
     24 HAH          3.1570    -0.0000     3.6750 ha         1 SGW       0.161000
     25 H12         -0.4850    -0.0010     5.7040 hn         1 SGW       0.336500
     26 H15          0.3160     0.0010     7.2950 ha         1 SGW       0.141500
     27 H19          4.0480    -0.0060     5.1680 ha         1 SGW       0.141500
     28 H16          1.5440    -0.0100     9.4290 ha         1 SGW       0.149000
     29 H18          5.2580    -0.0180     7.3120 ha         1 SGW       0.149000
     30 HAA1         3.7960    -0.8840    -0.6520 h1         1 SGW       0.043700
     31 HAA2         3.7960     0.8850    -0.6520 h1         1 SGW       0.043700
     32 HAA3         5.1660     0.0000     0.0330 h1         1 SGW       0.043700
@<TRIPOS>BOND
     1     1     2 ar
     2     1     6 ar
     3     2     3 ar
     4     3     4 ar
     5     3    20 1
     6     4     5 ar
     7     4    18 1
     8     5     6 ar
     9     5     7 1
    10     7     8 1
    11     7     9 2
    12     8    17 1
    13    10    11 ar
    14    10    15 ar
    15    10    17 1
    16    11    12 ar
    17    12    13 ar
    18    13    14 ar
    19    13    16 1
    20    14    15 ar
    21    17    18 2
    22    19    20 1
    23     1    21 1
    24     2    22 1
    25     6    23 1
    26    18    24 1
    27     8    25 1
    28    11    26 1
    29    15    27 1
    30    12    28 1
    31    14    29 1
    32    19    30 1
    33    19    31 1
    34    19    32 1
@<TRIPOS>SUBSTRUCTURE
     1 SGW         1 TEMP              0 ****  ****    0 ROOT
