@<TRIPOS>MOLECULE
SGX
   24    23     1     0     0
SMALL
bcc


@<TRIPOS>ATOM
      1 N           0.0210   -0.1810   -0.0860 n4        1 SGX     -0.820600
      2 CA          1.4940    0.0280   -0.0830 c3        1 SGX     -0.109500
      3 C           2.0960   -0.4250    1.3350 c         1 SGX      0.958600
      4 O           1.3410   -1.0990    2.0550 o         1 SGX     -0.766800
      5 CB          1.9170    1.4710   -0.3910 c3        1 SGX      0.181400
      6 OG          2.9970    1.4060   -1.3070 os        1 SGX     -0.546200
      7 O1          5.2630    2.3900   -2.1460 o         1 SGX     -0.708300
      8 P2          4.3720    2.1630   -1.0260 p5        1 SGX      1.513400
      9 N3          5.1800    1.1610    0.1210 n4        1 SGX     -0.878700
     10 O2          3.9290    3.4190   -0.1610 os        1 SGX     -0.596200
     11 C1          4.4010    4.7120   -0.5220 c3        1 SGX      0.142700
     12 OXT         3.2750   -0.0420    1.5380 o         1 SGX     -0.766800
     13 H          -0.3100   -0.5010   -0.9950 hn        1 SGX      0.463133
     14 HA1         2.2450    1.9910    0.5510 h1        1 SGX      0.081200
     15 HB2         1.0970    2.0610   -0.8940 h1        1 SGX      0.081200
     16 H3N1        4.7130    0.2330    0.2310 hn        1 SGX      0.495467
     17 H3N2        6.1550    0.9860   -0.1340 hn        1 SGX      0.495467
     18 H1C1        4.9740    5.1180    0.3530 h1        1 SGX      0.078700
     19 H1C2        3.4990    5.3550   -0.7030 h1        1 SGX      0.078700
     20 H1C3        5.0430    4.6460   -1.4380 h1        1 SGX      0.078700
     21 H1          1.9420   -0.6670   -0.8510 hx        1 SGX      0.120700
     22 H2         -0.4710    0.6740    0.1760 hn        1 SGX      0.463133
     23 HN3        -0.1740   -0.9060    0.6420 hn        1 SGX      0.463133
     24 H33         5.1660    1.5420    1.0760 hn        1 SGX      0.495467
@<TRIPOS>BOND
     1    1    2 1   
     2    1   13 1   
     3    1   22 1   
     4    1   23 1   
     5    2    3 1   
     6    2    5 1   
     7    2   21 1   
     8    3    4 1   
     9    3   12 1   
    10    5    6 1   
    11    5   14 1   
    12    5   15 1   
    13    6    8 1   
    14    7    8 2   
    15    8    9 1   
    16    8   10 1   
    17    9   16 1   
    18    9   17 1   
    19    9   24 1   
    20   10   11 1   
    21   11   18 1   
    22   11   19 1   
    23   11   20 1   
@<TRIPOS>SUBSTRUCTURE
     1 SGX         1 TEMP              0 ****  ****    0 ROOT
