@<TRIPOS>MOLECULE
molecule
   69    69     1     0     0
SMALL
bcc


@<TRIPOS>ATOM
      1 C1           0.0000     0.0000     0.0000 c3         1 SH1      -0.219600
      2 C2           1.5290     0.0000     0.0000 c3         1 SH1      -0.012100
      3 C3           2.0310     0.0000     1.4220 ca         1 SH1      -0.090300
      4 C4           2.2620    -1.1970     2.0720 ca         1 SH1      -0.123500
      5 C5           2.2650     1.1970     2.0720 ca         1 SH1      -0.123500
      6 C6           2.7230    -1.1980     3.3750 ca         1 SH1      -0.121500
      7 C7           2.7220     1.1960     3.3770 ca         1 SH1      -0.121500
      8 C8           2.9520    -0.0010     4.0270 ca         1 SH1      -0.119000
      9 S1          -0.6040     0.0010    -1.7110 s6         1 SH1       1.320900
     10 O1          -0.3560    -1.2420    -2.3540 o          1 SH1      -0.623800
     11 O2          -0.3590     1.2450    -2.3520 o          1 SH1      -0.623800
     12 N1          -2.2500    -0.0010    -1.5300 n7         1 SH1      -0.887100
     13 C9          -2.9100     1.0970    -0.8190 c3         1 SH1       0.187500
     14 C10         -3.6610     0.5400     0.3920 c3         1 SH1       0.127400
     15 O3          -4.6420    -0.4010    -0.0470 oh         1 SH1      -0.603800
     16 C11         -3.8840     1.7800    -1.7440 c          1 SH1       0.669100
     17 O4          -4.0140     1.3900    -2.8830 o          1 SH1      -0.594100
     18 N2          -4.6090     2.8260    -1.3020 ns         1 SH1      -0.577900
     19 C12         -5.5560     3.4910    -2.2010 c3         1 SH1       0.050700
     20 C13         -6.9260     2.8200    -2.0850 c3         1 SH1      -0.107100
     21 C14         -5.6760     4.9430    -1.8190 c          1 SH1       0.647100
     22 O5          -5.0320     5.3800    -0.8880 o          1 SH1      -0.589100
     23 N3          -6.4960     5.7570    -2.5130 ns         1 SH1      -0.595900
     24 C15         -6.6120     7.1700    -2.1410 c3         1 SH1       0.127700
     25 C16         -6.9340     7.9990    -3.3850 c3         1 SH1      -0.092400
     26 C17         -5.8130     7.8320    -4.4120 c3         1 SH1      -0.074400
     27 C18         -6.1340     8.6610    -5.6570 c3         1 SH1       0.078800
     28 N4          -5.0610     8.5020    -6.6410 n2         1 SH1      -0.364900
     29 C19         -5.3130     7.9570    -7.7990 c2         1 SH1       0.409100
     30 N5          -4.2850     7.6810    -8.6670 nz         1 SH1      -0.759600
     31 N6          -6.6080     7.6610    -8.1510 nz         1 SH1      -0.759600
     32 C20         -7.7330     7.3360    -1.1130 c3         1 SH1       0.125400
     33 O6          -8.9680     6.8900    -1.6780 oh         1 SH1      -0.632800
     34 H1C1        -0.3610    -0.8850     0.5100 h1         1 SH1       0.100700
     35 H1C2        -0.3610     0.8840     0.5110 h1         1 SH1       0.100700
     36 H2C1         1.8910     0.8850    -0.5110 hc         1 SH1       0.062200
     37 H2C2         1.8910    -0.8850    -0.5110 hc         1 SH1       0.062200
     38 H4           2.0820    -2.1350     1.5610 ha         1 SH1       0.129500
     39 H5           2.0840     2.1350     1.5620 ha         1 SH1       0.129500
     40 H6           2.9040    -2.1370     3.8850 ha         1 SH1       0.136500
     41 H7           2.9030     2.1340     3.8880 ha         1 SH1       0.136500
     42 H8           3.3120    -0.0010     5.0490 ha         1 SH1       0.138000
     43 H1          -2.7970    -0.7330    -1.9390 hn         1 SH1       0.482800
     44 H9          -2.1660     1.8100    -0.4860 h1         1 SH1       0.082700
     45 H101        -4.1490     1.3520     0.9180 h1         1 SH1       0.034200
     46 H102        -2.9610     0.0490     1.0560 h1         1 SH1       0.034200
     47 H3          -5.0050    -0.8490     0.7000 ho         1 SH1       0.419000
     48 H2          -4.4700     3.1760    -0.3750 hn         1 SH1       0.338500
     49 H12         -5.2010     3.4130    -3.2210 h1         1 SH1       0.078700
     50 H131        -7.4380     2.8790    -3.0380 hc         1 SH1       0.055033
     51 H132        -7.5120     3.3240    -1.3270 hc         1 SH1       0.055033
     52 H133        -6.7960     1.7800    -1.8090 hc         1 SH1       0.055033
     53 HA          -7.0340     5.3940    -3.2760 hn         1 SH1       0.311500
     54 H15         -5.6770     7.5080    -1.7130 h1         1 SH1       0.102700
     55 H161        -7.8690     7.6610    -3.8140 hc         1 SH1       0.071200
     56 H162        -7.0190     9.0440    -3.1110 hc         1 SH1       0.071200
     57 H171        -4.8770     8.1720    -3.9840 hc         1 SH1       0.083200
     58 H172        -5.7270     6.7880    -4.6860 hc         1 SH1       0.083200
     59 H181        -7.0700     8.3220    -6.0850 h1         1 SH1       0.093700
     60 H182        -6.2210     9.7060    -5.3830 h1         1 SH1       0.093700
     61 H5N1        -4.3570     8.2740    -9.4700 hn         1 SH1       0.499300
     62 H5N2        -3.4090     7.8430    -8.2100 hn         1 SH1       0.499300
     63 H6N1        -6.6340     7.3610    -9.1050 hn         1 SH1       0.499300
     64 H6N2        -6.9560     6.9310    -7.5620 hn         1 SH1       0.499300
     65 H201        -7.8180     8.3800    -0.8380 h1         1 SH1       0.054200
     66 H202        -7.5050     6.7480    -0.2320 h1         1 SH1       0.054200
     67 HB          -9.6700     7.0590    -1.0720 ho         1 SH1       0.430000
     68 H53         -4.3380     6.7230    -8.9540 hn         1 SH1       0.499300
     69 H63         -7.1720     8.4850    -8.0730 hn         1 SH1       0.499300
@<TRIPOS>BOND
     1     1     2 1
     2     1     9 1
     3     1    34 1
     4     1    35 1
     5     2     3 1
     6     2    36 1
     7     2    37 1
     8     3     4 ar
     9     3     5 ar
    10     4     6 ar
    11     4    38 1
    12     5     7 ar
    13     5    39 1
    14     6     8 ar
    15     6    40 1
    16     7     8 ar
    17     7    41 1
    18     8    42 1
    19     9    10 2
    20     9    11 2
    21     9    12 1
    22    12    13 1
    23    12    43 1
    24    13    14 1
    25    13    16 1
    26    13    44 1
    27    14    15 1
    28    14    45 1
    29    14    46 1
    30    15    47 1
    31    16    17 2
    32    16    18 1
    33    18    19 1
    34    18    48 1
    35    19    20 1
    36    19    21 1
    37    19    49 1
    38    20    50 1
    39    20    51 1
    40    20    52 1
    41    21    22 2
    42    21    23 1
    43    23    24 1
    44    23    53 1
    45    24    25 1
    46    24    32 1
    47    24    54 1
    48    25    26 1
    49    25    55 1
    50    25    56 1
    51    26    27 1
    52    26    57 1
    53    26    58 1
    54    27    28 1
    55    27    59 1
    56    27    60 1
    57    28    29 2
    58    29    30 1
    59    29    31 1
    60    30    61 1
    61    30    62 1
    62    31    63 1
    63    31    64 1
    64    32    33 1
    65    32    65 1
    66    32    66 1
    67    33    67 1
    68    68    30 1
    69    69    31 1
@<TRIPOS>SUBSTRUCTURE
     1 SH1         1 TEMP              0 ****  ****    0 ROOT
