@<TRIPOS>MOLECULE
SH2
   52    53     1     0     0
SMALL
bcc


@<TRIPOS>ATOM
      1 CAZ          0.0000     0.0000     0.0000 ca         1 SH2      -0.082000
      2 CAY          1.3860     0.0000     0.0000 ca         1 SH2       0.060100
      3 OAX          2.2900     0.0000     1.0220 os         1 SH2      -0.313900
      4 CAW          3.5370    -0.4130     0.4320 c3         1 SH2       0.432200
      5 OAV          3.4170    -0.0000    -0.9420 os         1 SH2      -0.313900
      6 CAU          2.0790    -0.0000    -1.2080 ca         1 SH2       0.057100
      7 CAT          1.3790     0.0010    -2.4040 ca         1 SH2      -0.083000
      8 CAS         -0.0030     0.0020    -2.3970 ca         1 SH2      -0.093000
      9 CAR         -0.6910     0.0010    -1.1980 ca         1 SH2      -0.093300
     10 CAQ         -2.1990     0.0010    -1.1960 c3         1 SH2       0.023900
     11 CAP         -2.7080     1.4440    -1.1940 c3         1 SH2       0.051000
     12 NAO         -4.1740     1.4440    -1.1920 ns         1 SH2      -0.203900
     13 CAM         -4.8470     2.6110    -1.1910 c          1 SH2       0.573100
     14 OAN         -4.2400     3.6620    -1.1910 o          1 SH2      -0.634100
     15 CAL         -6.3540     2.6120    -1.1890 c3         1 SH2      -0.111400
     16 CAK         -6.8640     4.0540    -1.1870 c3         1 SH2       0.061000
     17 NAJ         -8.3280     4.0540    -1.1850 ns         1 SH2      -0.201900
     18 CAH         -9.0030     5.2220    -1.1840 c          1 SH2       0.560100
     19 OAI         -8.4000     6.2690    -1.0900 o          1 SH2      -0.640100
     20 CAF        -10.5050     5.2240    -1.2980 c3         1 SH2       0.125100
     21 OAG        -10.9990     3.8950    -1.1200 oh         1 SH2      -0.595800
     22 CAB        -10.9100     5.7380    -2.6810 c3         1 SH2      -0.073000
     23 CAA        -10.5120     7.2090    -2.8160 c3         1 SH2      -0.000600
     24 CAC        -10.1990     4.9170    -3.7590 c3         1 SH2      -0.000600
     25 CAD        -12.4240     5.6010    -2.8530 c3         1 SH2       0.228400
     26 OAE        -12.8030     6.0820    -4.1450 oh         1 SH2      -0.588800
     27 H1          -0.5420    -0.0010     0.9380 ha         1 SH2       0.115000
     28 H2           4.3590     0.1120     0.9040 h2         1 SH2       0.014700
     29 H3           1.9160     0.0020    -3.3450 ha         1 SH2       0.113000
     30 H4          -0.5490     0.0020    -3.3330 ha         1 SH2       0.111000
     31 H5          -2.5610    -0.5090    -2.0800 hc         1 SH2       0.019200
     32 H6          -2.5590    -0.5100    -0.3110 hc         1 SH2       0.019200
     33 H7          -2.3480     1.9550    -2.0790 h1         1 SH2       0.032700
     34 H8          -2.3450     1.9540    -0.3100 h1         1 SH2       0.032700
     35 H9          -4.6740     0.5770    -1.1780 hn         1 SH2       0.171500
     36 H10         -6.7170     2.1020    -2.0730 hc         1 SH2       0.027700
     37 H11         -6.7150     2.1000    -0.3040 hc         1 SH2       0.027700
     38 H12         -6.5040     4.5650    -2.0720 h1         1 SH2       0.042200
     39 H13         -6.5010     4.5640    -0.3030 h1         1 SH2       0.042200
     40 H14         -8.8280     3.1880    -1.1510 hn         1 SH2       0.186500
     41 H15        -10.9250     5.8700    -0.5360 h1         1 SH2       0.027700
     42 H16        -11.4270     3.8280    -0.2830 ho         1 SH2       0.395000
     43 H17        -11.1090     7.6760    -3.5900 hc         1 SH2       0.015867
     44 H18        -10.6810     7.7170    -1.8740 hc         1 SH2       0.015867
     45 H19         -9.4630     7.2770    -3.0790 hc         1 SH2       0.015867
     46 H20         -9.1290     4.9580    -3.5960 hc         1 SH2       0.015867
     47 H21        -10.5330     3.8880    -3.7080 hc         1 SH2       0.015867
     48 H22        -10.4320     5.3240    -4.7350 hc         1 SH2       0.015867
     49 H23        -12.7060     4.5600    -2.7580 h1         1 SH2      -0.010300
     50 H24        -12.9280     6.1820    -2.0900 h1         1 SH2      -0.010300
     51 H25        -13.7390     6.0250    -4.2400 ho         1 SH2       0.388000
     52 H26          3.6300    -1.4910     0.4860 h2         1 SH2       0.014700
@<TRIPOS>BOND
     1     1     2 ar  
     2     1     9 ar  
     3     1    27 1   
     4     2     3 1   
     5     2     6 ar  
     6     3     4 1   
     7     4     5 1   
     8     4    28 1   
     9     4    52 1   
    10     5     6 1   
    11     6     7 ar  
    12     7     8 ar  
    13     7    29 1   
    14     8     9 ar  
    15     8    30 1   
    16     9    10 1   
    17    10    11 1   
    18    10    31 1   
    19    10    32 1   
    20    11    12 1   
    21    11    33 1   
    22    11    34 1   
    23    12    13 1   
    24    12    35 1   
    25    13    14 2   
    26    13    15 1   
    27    15    16 1   
    28    15    36 1   
    29    15    37 1   
    30    16    17 1   
    31    16    38 1   
    32    16    39 1   
    33    17    18 1   
    34    17    40 1   
    35    18    19 2   
    36    18    20 1   
    37    20    21 1   
    38    20    22 1   
    39    20    41 1   
    40    21    42 1   
    41    22    23 1   
    42    22    24 1   
    43    22    25 1   
    44    23    43 1   
    45    23    44 1   
    46    23    45 1   
    47    24    46 1   
    48    24    47 1   
    49    24    48 1   
    50    25    26 1   
    51    25    49 1   
    52    25    50 1   
    53    26    51 1   
@<TRIPOS>SUBSTRUCTURE
     1 SH2         1 TEMP              0 ****  ****    0 ROOT
