@<TRIPOS>MOLECULE
molecule
   55    56     1     0     0
SMALL
bcc


@<TRIPOS>ATOM
      1 OAC          0.0000     0.0000     0.0000 o          1 SH3      -0.910167
      2 PAB          1.6100     0.0000     0.0000 p5         1 SH3       1.179900
      3 OAD          2.1470     0.0000     1.5180 o          1 SH3      -0.910167
      4 OAA          2.1030    -1.2090    -0.6970 o          1 SH3      -0.910167
      5 OAE          2.1470     1.3150    -0.7590 os         1 SH3      -0.585200
      6 CAF          3.5320     1.5530    -1.0180 c3         1 SH3       0.229400
      7 CAG          3.6920     2.8860    -1.7510 c3         1 SH3      -0.071000
      8 CAH          2.9270     2.8340    -3.0760 c3         1 SH3      -0.066600
      9 CAI          3.1330     4.0160    -0.8840 c3         1 SH3      -0.066600
     10 CAJ          5.1740     3.1420    -2.0280 c3         1 SH3       0.088100
     11 OAK          5.8650     3.3230    -0.7900 oh         1 SH3      -0.550800
     12 CAL          5.7590     1.9610    -2.7620 c          1 SH3       0.645100
     13 OAM          6.5720     1.2490    -2.2130 o          1 SH3      -0.586100
     14 NAN          5.3770     1.6990    -4.0270 ns         1 SH3      -0.600900
     15 CAO          5.8710     0.4980    -4.7060 c3         1 SH3       0.129000
     16 CAP          5.2900     0.4380    -6.1210 c3         1 SH3      -0.175400
     17 CAQ          5.7980    -0.7960    -6.8200 c          1 SH3       0.663100
     18 OAR          6.5500    -1.5530    -6.2440 o          1 SH3      -0.592100
     19 NAS          5.4160    -1.0590    -8.0850 ns         1 SH3      -0.601900
     20 CAT          5.9100    -2.2600    -8.7650 c3         1 SH3       0.118000
     21 CAU          5.3290    -2.3200   -10.1800 c3         1 SH3      -0.052100
     22 CAV          5.8370    -3.5550   -10.8780 ca         1 SH3      -0.073300
     23 CBD          7.0120    -3.5020   -11.6050 ca         1 SH3      -0.108000
     24 CBC          7.4830    -4.6370   -12.2440 ca         1 SH3       0.045100
     25 OBB          8.5930    -4.8500   -13.0110 os         1 SH3      -0.331900
     26 CBA          8.7680    -6.2780   -13.0460 c3         1 SH3       0.332200
     27 OAZ          7.4350    -6.7910   -12.8590 os         1 SH3      -0.332900
     28 CAY          6.7710    -5.8310   -12.1520 ca         1 SH3       0.041100
     29 CAX          5.5940    -5.8760   -11.4220 ca         1 SH3      -0.110000
     30 CAW          5.1310    -4.7390   -10.7860 ca         1 SH3      -0.115000
     31 H3           4.0730     1.5890    -0.0800 h1         1 SH3       0.030200
     32 H4           3.9270     0.7530    -1.6320 h1         1 SH3       0.030200
     33 H5           1.8940     3.1150    -2.9080 hc         1 SH3       0.028033
     34 H6           3.3780     3.5230    -3.7800 hc         1 SH3       0.028033
     35 H7           2.9680     1.8290    -3.4770 hc         1 SH3       0.028033
     36 H8           3.4330     4.9710    -1.2970 hc         1 SH3       0.028033
     37 H9           3.5170     3.9210     0.1240 hc         1 SH3       0.028033
     38 H10          2.0510     3.9550    -0.8650 hc         1 SH3       0.028033
     39 H11          5.2800     4.0330    -2.6340 h1         1 SH3       0.006700
     40 H12          6.5520     3.9580    -0.9030 ho         1 SH3       0.373000
     41 H13          4.8120     2.3580    -4.5250 hn         1 SH3       0.306500
     42 H14          5.5660    -0.3810    -4.1530 h1         1 SH3       0.071700
     43 H15          6.9520     0.5340    -4.7610 h1         1 SH3       0.071700
     44 H16          4.2080     0.4030    -6.0670 hc         1 SH3       0.060700
     45 H17          5.5950     1.3180    -6.6750 hc         1 SH3       0.060700
     46 H18          4.7960    -0.4350    -8.5610 hn         1 SH3       0.307500
     47 H19          5.6050    -3.1390    -8.2120 h1         1 SH3       0.057200
     48 H20          6.9920    -2.2250    -8.8200 h1         1 SH3       0.057200
     49 H21          5.6350    -1.4410   -10.7340 hc         1 SH3       0.052700
     50 H22          4.2480    -2.3550   -10.1260 hc         1 SH3       0.052700
     51 H23          7.5500    -2.5660   -11.6970 ha         1 SH3       0.144000
     52 H24          9.1440    -6.5780   -14.0170 h2         1 SH3       0.066700
     53 H25          9.4010    -6.5920   -12.2250 h2         1 SH3       0.066700
     54 H26          5.0380    -6.8030   -11.3480 ha         1 SH3       0.143000
     55 H27          4.2070    -4.7750   -10.2200 ha         1 SH3       0.150000
@<TRIPOS>BOND
     1    26    25 1
     2    26    27 1
     3    25    24 1
     4     9     7 1
     5     4     2 1
     6     6     7 1
     7     6     5 1
     8    27    28 1
     9    24    28 ar
    10    24    23 ar
    11     7     8 1
    12     7    10 1
    13     5     2 1
    14    28    29 ar
    15     2     1 1
    16     2     3 1
    17    23    22 ar
    18    11    10 1
    19    16    17 1
    20    16    15 1
    21    10    12 1
    22    29    30 ar
    23    19    17 1
    24    19    20 1
    25    14    12 1
    26    14    15 1
    27    12    13 2
    28    17    18 2
    29    22    30 ar
    30    22    21 1
    31    20    21 1
    32     6    31 1
    33     6    32 1
    34     8    33 1
    35     8    34 1
    36     8    35 1
    37     9    36 1
    38     9    37 1
    39     9    38 1
    40    10    39 1
    41    11    40 1
    42    14    41 1
    43    15    42 1
    44    15    43 1
    45    16    44 1
    46    16    45 1
    47    19    46 1
    48    20    47 1
    49    20    48 1
    50    21    49 1
    51    21    50 1
    52    23    51 1
    53    26    52 1
    54    26    53 1
    55    29    54 1
    56    30    55 1
@<TRIPOS>SUBSTRUCTURE
     1 SH3         1 TEMP              0 ****  ****    0 ROOT
