@<TRIPOS>MOLECULE
SH3
   55    56     1     0     0
SMALL
bcc


@<TRIPOS>ATOM
      1 OAC          0.0000     0.0000     0.0000 o          1 SH3      -0.729167
      2 PAB          1.6100     0.0000     0.0000 p5         1 SH3       0.684900
      3 OAD          2.1470     0.0000     1.5180 o          1 SH3      -0.729167
      4 OAA          2.1030    -1.2090    -0.6970 o          1 SH3      -0.729167
      5 OAE          2.1470     1.3150    -0.7590 os         1 SH3      -0.484200
      6 CAF          3.5320     1.5530    -1.0180 c3         1 SH3       0.285400
      7 CAG          3.6920     2.8860    -1.7510 c3         1 SH3      -0.098000
      8 CAH          2.9270     2.8340    -3.0760 c3         1 SH3       0.016400
      9 CAI          3.1330     4.0160    -0.8840 c3         1 SH3       0.016400
     10 CAJ          5.1740     3.1420    -2.0280 c3         1 SH3       0.134100
     11 OAK          5.8650     3.3230    -0.7900 oh         1 SH3      -0.529800
     12 CAL          5.7590     1.9610    -2.7620 c          1 SH3       0.565100
     13 OAM          6.5720     1.2490    -2.2130 o          1 SH3      -0.626100
     14 NAN          5.3770     1.6990    -4.0270 ns         1 SH3      -0.234900
     15 CAO          5.8710     0.4980    -4.7060 c3         1 SH3       0.066000
     16 CAP          5.2900     0.4380    -6.1210 c3         1 SH3      -0.110400
     17 CAQ          5.7980    -0.7960    -6.8200 c          1 SH3       0.579100
     18 OAR          6.5500    -1.5530    -6.2440 o          1 SH3      -0.629100
     19 NAS          5.4160    -1.0590    -8.0850 ns         1 SH3      -0.221900
     20 CAT          5.9100    -2.2600    -8.7650 c3         1 SH3       0.054000
     21 CAU          5.3290    -2.3200   -10.1800 c3         1 SH3       0.026900
     22 CAV          5.8370    -3.5550   -10.8780 ca         1 SH3      -0.109300
     23 CBD          7.0120    -3.5020   -11.6050 ca         1 SH3      -0.079000
     24 CBC          7.4830    -4.6370   -12.2440 ca         1 SH3       0.045100
     25 OBB          8.5930    -4.8500   -13.0110 os         1 SH3      -0.322900
     26 CBA          8.7680    -6.2780   -13.0460 c3         1 SH3       0.429200
     27 OAZ          7.4350    -6.7910   -12.8590 os         1 SH3      -0.320900
     28 CAY          6.7710    -5.8310   -12.1520 ca         1 SH3       0.018100
     29 CAX          5.5940    -5.8760   -11.4220 ca         1 SH3      -0.081000
     30 CAW          5.1310    -4.7390   -10.7860 ca         1 SH3      -0.096000
     31 H3           4.0730     1.5890    -0.0800 h1         1 SH3      -0.009300
     32 H4           3.9270     0.7530    -1.6320 h1         1 SH3      -0.009300
     33 H5           1.8940     3.1150    -2.9080 hc         1 SH3      -0.001967
     34 H6           3.3780     3.5230    -3.7800 hc         1 SH3      -0.001967
     35 H7           2.9680     1.8290    -3.4770 hc         1 SH3      -0.001967
     36 H8           3.4330     4.9710    -1.2970 hc         1 SH3      -0.001967
     37 H9           3.5170     3.9210     0.1240 hc         1 SH3      -0.001967
     38 H10          2.0510     3.9550    -0.8650 hc         1 SH3      -0.001967
     39 H11          5.2800     4.0330    -2.6340 h1         1 SH3      -0.027300
     40 H12          6.5520     3.9580    -0.9030 ho         1 SH3       0.353000
     41 H13          4.8120     2.3580    -4.5250 hn         1 SH3       0.177500
     42 H14          5.5660    -0.3810    -4.1530 h1         1 SH3       0.042700
     43 H15          6.9520     0.5340    -4.7610 h1         1 SH3       0.042700
     44 H16          4.2080     0.4030    -6.0670 hc         1 SH3       0.026700
     45 H17          5.5950     1.3180    -6.6750 hc         1 SH3       0.026700
     46 H18          4.7960    -0.4350    -8.5610 hn         1 SH3       0.169500
     47 H19          5.6050    -3.1390    -8.2120 h1         1 SH3       0.028700
     48 H20          6.9920    -2.2250    -8.8200 h1         1 SH3       0.028700
     49 H21          5.6350    -1.4410   -10.7340 hc         1 SH3       0.015200
     50 H22          4.2480    -2.3550   -10.1260 hc         1 SH3       0.015200
     51 H23          7.5500    -2.5660   -11.6970 ha         1 SH3       0.109000
     52 H24          9.1440    -6.5780   -14.0170 h2         1 SH3       0.006700
     53 H25          9.4010    -6.5920   -12.2250 h2         1 SH3       0.006700
     54 H26          5.0380    -6.8030   -11.3480 ha         1 SH3       0.106000
     55 H27          4.2070    -4.7750   -10.2200 ha         1 SH3       0.114000
@<TRIPOS>BOND
     1     1     2 1   
     2     2     3 1   
     3     2     4 1   
     4     2     5 1   
     5     5     6 1   
     6     6     7 1   
     7     6    31 1   
     8     6    32 1   
     9     7     8 1   
    10     7     9 1   
    11     7    10 1   
    12     8    33 1   
    13     8    34 1   
    14     8    35 1   
    15     9    36 1   
    16     9    37 1   
    17     9    38 1   
    18    10    11 1   
    19    10    12 1   
    20    10    39 1   
    21    11    40 1   
    22    12    13 2   
    23    12    14 1   
    24    14    15 1   
    25    14    41 1   
    26    15    16 1   
    27    15    42 1   
    28    15    43 1   
    29    16    17 1   
    30    16    44 1   
    31    16    45 1   
    32    17    18 2   
    33    17    19 1   
    34    19    20 1   
    35    19    46 1   
    36    20    21 1   
    37    20    47 1   
    38    20    48 1   
    39    21    22 1   
    40    21    49 1   
    41    21    50 1   
    42    22    23 ar  
    43    22    30 ar  
    44    23    24 ar  
    45    23    51 1   
    46    24    25 1   
    47    24    28 ar  
    48    25    26 1   
    49    26    27 1   
    50    26    52 1   
    51    26    53 1   
    52    27    28 1   
    53    28    29 ar  
    54    29    30 ar  
    55    29    54 1   
    56    30    55 1   
@<TRIPOS>SUBSTRUCTURE
     1 SH3         1 TEMP              0 ****  ****    0 ROOT
