@<TRIPOS>MOLECULE
molecule
   42    43     1     0     0
SMALL
bcc


@<TRIPOS>ATOM
      1 O1           0.0000     0.0000     0.0000 o          1 SH4      -0.807000
      2 P1           1.5450     0.0000     0.0000 p5         1 SH4       1.161600
      3 O2           2.0600     0.0000     1.4570 o          1 SH4      -0.807000
      4 O3           2.0830    -1.3150    -0.7580 os         1 SH4      -0.603200
      5 C1           1.8640    -2.6400    -0.2680 c3         1 SH4       0.276400
      6 C2           3.1920    -3.3070    -0.0180 ca         1 SH4      -0.071300
      7 C3           3.3340    -4.1860     1.0400 ca         1 SH4      -0.107500
      8 C4           4.5520    -4.7980     1.2710 ca         1 SH4      -0.142000
      9 C5           5.6270    -4.5320     0.4440 ca         1 SH4      -0.146000
     10 C6           5.4830    -3.6540    -0.6140 ca         1 SH4      -0.142000
     11 C7           4.2650    -3.0450    -0.8480 ca         1 SH4      -0.107500
     12 C8           1.0780    -3.4430    -1.3060 c3         1 SH4      -0.104100
     13 C9           2.1530     1.4890    -0.8590 c3         1 SH4      -0.211300
     14 C10          1.7540     2.7160    -0.0810 ca         1 SH4      -0.018300
     15 C11          2.5960     3.2170     0.8960 ca         1 SH4      -0.096500
     16 C12          2.2320     4.3430     1.6100 ca         1 SH4      -0.144000
     17 C13          1.0220     4.9700     1.3480 ca         1 SH4       0.013600
     18 N1           0.6520     6.1100     2.0690 ns         1 SH4      -0.469100
     19 C14          1.5940     6.9800     2.4840 c          1 SH4       0.651100
     20 O4           2.7500     6.8270     2.1510 o          1 SH4      -0.602100
     21 C15          1.2100     8.1430     3.3620 c3         1 SH4      -0.175100
     22 C16          0.1790     4.4630     0.3660 ca         1 SH4      -0.144000
     23 C17          0.5500     3.3410    -0.3480 ca         1 SH4      -0.096500
     24 H1           1.3020    -2.5950     0.6560 h1         1 SH4       0.062700
     25 H3           2.4910    -4.3940     1.6880 ha         1 SH4       0.137000
     26 H4           4.6630    -5.4860     2.1000 ha         1 SH4       0.114000
     27 H5           6.5820    -5.0100     0.6260 ha         1 SH4       0.110000
     28 H6           6.3250    -3.4470    -1.2640 ha         1 SH4       0.114000
     29 H7           4.1530    -2.3570    -1.6780 ha         1 SH4       0.137000
     30 H81          0.0160    -3.3000    -1.1450 hc         1 SH4       0.035700
     31 H82          1.3190    -4.4950    -1.2070 hc         1 SH4       0.035700
     32 H83          1.3420    -3.1040    -2.3010 hc         1 SH4       0.035700
     33 H91          1.7220     1.5340    -1.8520 hc         1 SH4       0.052700
     34 H92          3.2330     1.4460    -0.9360 hc         1 SH4       0.052700
     35 H11          3.5400     2.7270     1.1000 ha         1 SH4       0.140000
     36 H12          2.8910     4.7350     2.3750 ha         1 SH4       0.126500
     37 HN1         -0.3060     6.2550     2.3180 hn         1 SH4       0.312500
     38 H151         0.5830     8.8270     2.8020 hc         1 SH4       0.054033
     39 H152         2.1050     8.6590     3.6880 hc         1 SH4       0.054033
     40 H153         0.6670     7.7800     4.2260 hc         1 SH4       0.054033
     41 H16         -0.7650     4.9510     0.1570 ha         1 SH4       0.126500
     42 H17         -0.1060     2.9460    -1.1140 ha         1 SH4       0.140000
@<TRIPOS>BOND
     1     1     2 1
     2     2     3 1
     3     2     4 1
     4     2    13 1
     5     4     5 1
     6     5     6 1
     7     5    12 1
     8     5    24 1
     9     6     7 ar
    10     6    11 ar
    11     7     8 ar
    12     7    25 1
    13     8     9 ar
    14     8    26 1
    15     9    10 ar
    16     9    27 1
    17    10    11 ar
    18    10    28 1
    19    11    29 1
    20    12    30 1
    21    12    31 1
    22    12    32 1
    23    13    14 1
    24    13    33 1
    25    13    34 1
    26    14    15 ar
    27    14    23 ar
    28    15    16 ar
    29    15    35 1
    30    16    17 ar
    31    16    36 1
    32    17    18 1
    33    17    22 ar
    34    18    19 1
    35    18    37 1
    36    19    20 2
    37    19    21 1
    38    21    38 1
    39    21    39 1
    40    21    40 1
    41    22    23 ar
    42    22    41 1
    43    23    42 1
@<TRIPOS>SUBSTRUCTURE
     1 SH4         1 TEMP              0 ****  ****    0 ROOT
