@<TRIPOS>MOLECULE
molecule
   59    61     1     0     0
SMALL
bcc


@<TRIPOS>ATOM
      1 BrA          0.0000     0.0000     0.0000 br         1 SH5      -0.201400
      2 CAB          1.9650     0.0000     0.0000 c3         1 SH5       0.009000
      3 CAC          2.4760     0.0000     1.4430 c3         1 SH5      -0.085400
      4 CAD          4.0060    -0.0010     1.4430 c3         1 SH5      -0.084400
      5 CAE          4.5160    -0.0010     2.8850 c3         1 SH5      -0.078400
      6 CAF          6.0450    -0.0020     2.8860 c3         1 SH5      -0.084400
      7 CAG          6.5550    -0.0020     4.3280 c3         1 SH5      -0.072400
      8 CAH          8.0850    -0.0030     4.3280 c3         1 SH5      -0.137400
      9 CAI          8.5880    -0.0020     5.7480 c          1 SH5       0.682100
     10 OAJ          7.8020    -0.0020     6.6670 o          1 SH5      -0.505000
     11 OAK          9.9080    -0.0030     5.9940 os         1 SH5      -0.549500
     12 PAL         10.3630    -0.0030     7.5380 p5         1 SH5       1.330800
     13 OAN          9.9000    -1.3780     8.2340 o          1 SH5      -0.795000
     14 OAM          9.7370     1.1400     8.2380 o          1 SH5      -0.795000
     15 O5'         11.9660     0.1280     7.6240 os         1 SH5      -0.595200
     16 C5'         12.6710     0.2620     8.8600 c3         1 SH5       0.233400
     17 C4'         14.1720     0.3630     8.5830 c3         1 SH5       0.114100
     18 O4'         14.4590     1.5870     7.8870 os         1 SH5      -0.392600
     19 C3'         14.9490     0.3990     9.9130 c3         1 SH5       0.085100
     20 O3'         15.8490    -0.7080     9.9960 oh         1 SH5      -0.579800
     21 C2'         15.7310     1.7340     9.8590 c3         1 SH5       0.091100
     22 O2'         17.0570     1.5680    10.3660 oh         1 SH5      -0.564800
     23 C1'         15.7550     2.0350     8.3390 c3         1 SH5       0.255800
     24 N9          15.9170     3.4710     8.1010 na         1 SH5      -0.245000
     25 C8          14.9150     4.3700     7.8830 cc         1 SH5       0.447700
     26 N7          15.4150     5.5600     7.7090 nd         1 SH5      -0.606100
     27 C5          16.7650     5.4990     7.8030 ca         1 SH5      -0.208200
     28 C4          17.1030     4.1600     8.0610 ca         1 SH5       0.473800
     29 N3          18.3830     3.8320     8.2040 nb         1 SH5      -0.774000
     30 C2          19.3250     4.7470     8.1090 ca         1 SH5       0.724900
     31 N1          19.0560     6.0180     7.8700 nb         1 SH5      -0.846000
     32 C6          17.8060     6.4380     7.7060 ca         1 SH5       0.779200
     33 N6          17.5340     7.7730     7.4590 nv         1 SH5      -0.992500
     34 H1           2.3260     0.8850    -0.5110 h1         1 SH5       0.068700
     35 H2           2.3260    -0.8850    -0.5110 h1         1 SH5       0.068700
     36 H3           2.1150     0.8850     1.9540 hc         1 SH5       0.056700
     37 H4           2.1140    -0.8840     1.9540 hc         1 SH5       0.056700
     38 H5           4.3670    -0.8850     0.9320 hc         1 SH5       0.039700
     39 H6           4.3670     0.8840     0.9320 hc         1 SH5       0.039700
     40 H7           4.1540    -0.8850     3.3960 hc         1 SH5       0.046200
     41 H8           4.1550     0.8840     3.3960 hc         1 SH5       0.046200
     42 H9           6.4070     0.8830     2.3750 hc         1 SH5       0.035700
     43 H10          6.4060    -0.8860     2.3750 hc         1 SH5       0.035700
     44 H11          6.1940     0.8830     4.8390 hc         1 SH5       0.060200
     45 H12          6.1930    -0.8860     4.8390 hc         1 SH5       0.060200
     46 H13          8.4460    -0.8870     3.8170 hc         1 SH5       0.058200
     47 H14          8.4470     0.8820     3.8170 hc         1 SH5       0.058200
     48 H16         12.4760    -0.6030     9.4830 h1         1 SH5       0.041200
     49 H17         12.3370     1.1570     9.3710 h1         1 SH5       0.041200
     50 H18         14.5000    -0.4820     7.9890 h1         1 SH5       0.084700
     51 H19         14.2610     0.3990    10.7510 h1         1 SH5       0.053700
     52 H20         15.5850    -1.2760    10.7010 ho         1 SH5       0.402000
     53 H21         15.2000     2.5110    10.3950 h1         1 SH5       0.058700
     54 H22         17.0880     1.8530    11.2650 ho         1 SH5       0.398000
     55 H23         16.5420     1.4710     7.8540 h2         1 SH5       0.106700
     56 H24         13.8590     4.1300     7.8570 h5         1 SH5       0.104800
     57 H25         20.3580     4.4470     8.2360 h5         1 SH5       0.054100
     58 H26         18.2840     8.4320     7.3940 hn         1 SH5       0.445800
     59 H27         16.5880     8.0770     7.3400 hn         1 SH5       0.445800
@<TRIPOS>BOND
     1    20    19 1
     2    22    21 1
     3    21    19 1
     4    21    23 1
     5    19    17 1
     6    17    16 1
     7    17    18 1
     8    14    12 1
     9    16    15 1
    10    23    18 1
    11    23    24 1
    12    15    12 1
    13    12    13 1
    14    12    11 1
    15    24    25 1
    16    24    28 1
    17    25    26 2
    18    11     9 1
    19    28    29 ar
    20    28    27 ar
    21    29    30 ar
    22    26    27 1
    23     9    10 2
    24     9     8 1
    25    27    32 ar
    26    30    31 ar
    27     8     7 1
    28    32    31 ar
    29    32    33 1
    30     7     6 1
    31     6     5 1
    32     5     4 1
    33     4     3 1
    34     3     2 1
    35     1     2 1
    36     2    34 1
    37     2    35 1
    38     3    36 1
    39     3    37 1
    40     4    38 1
    41     4    39 1
    42     5    40 1
    43     5    41 1
    44     6    42 1
    45     6    43 1
    46     7    44 1
    47     7    45 1
    48     8    46 1
    49     8    47 1
    50    16    48 1
    51    16    49 1
    52    17    50 1
    53    19    51 1
    54    20    52 1
    55    21    53 1
    56    22    54 1
    57    23    55 1
    58    25    56 1
    59    30    57 1
    60    33    58 1
    61    33    59 1
@<TRIPOS>SUBSTRUCTURE
     1 SH5         1 TEMP              0 ****  ****    0 ROOT
