@<TRIPOS>MOLECULE
molecule
   25    24     1     0     0
SMALL
bcc


@<TRIPOS>ATOM
      1 OAA          0.0000     0.0000     0.0000 o          1 SH6      -0.857300
      2 CAB          1.2090     0.0000     0.0000 c          1 SH6       0.890600
      3 OAC          1.8800     0.0000     1.1620 o          1 SH6      -0.857300
      4 CAD          1.9620    -0.0050    -1.3050 c3         1 SH6      -0.182400
      5 CAE          0.9680    -0.0110    -2.4680 c3         1 SH6      -0.063400
      6 CAF          1.7320    -0.0160    -3.7930 c3         1 SH6      -0.088400
      7 CAG          0.7380    -0.0210    -4.9560 c3         1 SH6      -0.079400
      8 CAH          1.5040    -0.0270    -6.2810 c3         1 SH6      -0.084400
      9 CAI          0.5100    -0.0330    -7.4440 c3         1 SH6      -0.086400
     10 CAJ          1.2740    -0.0390    -8.7690 c3         1 SH6       0.013000
     11 BrA         -0.0040    -0.0460   -10.2630 br         1 SH6      -0.211400
     12 H2           2.5860    -0.8890    -1.3590 hc         1 SH6       0.026700
     13 H3           2.5840     0.8800    -1.3670 hc         1 SH6       0.026700
     14 H4           0.3440     0.8740    -2.4140 hc         1 SH6       0.045700
     15 H5           0.3450    -0.8950    -2.4060 hc         1 SH6       0.045700
     16 H6           2.3550     0.8680    -3.8540 hc         1 SH6       0.029700
     17 H7           2.3550    -0.9010    -3.8460 hc         1 SH6       0.029700
     18 H8           0.1150    -0.9060    -4.8950 hc         1 SH6       0.041700
     19 H9           0.1150     0.8630    -4.9020 hc         1 SH6       0.041700
     20 H10          2.1270    -0.9110    -6.3340 hc         1 SH6       0.037700
     21 H11          2.1260     0.8580    -6.3420 hc         1 SH6       0.037700
     22 H12         -0.1130    -0.9180    -7.3820 hc         1 SH6       0.054700
     23 H13         -0.1140     0.8510    -7.3910 hc         1 SH6       0.054700
     24 H14          1.8970     0.8460    -8.8300 h1         1 SH6       0.067700
     25 H15          1.8980    -0.9230    -8.8220 h1         1 SH6       0.067700
@<TRIPOS>BOND
     1     1     2 1
     2     3     2 1
     3     2     4 1
     4     4     5 1
     5     5     6 1
     6     6     7 1
     7     7     8 1
     8     8     9 1
     9    11    10 1
    10     9    10 1
    11     4    12 1
    12     4    13 1
    13     5    14 1
    14     5    15 1
    15     6    16 1
    16     6    17 1
    17     7    18 1
    18     7    19 1
    19     8    20 1
    20     8    21 1
    21     9    22 1
    22     9    23 1
    23    10    24 1
    24    10    25 1
@<TRIPOS>SUBSTRUCTURE
     1 SH6         1 TEMP              0 ****  ****    0 ROOT
