@<TRIPOS>MOLECULE
SHA
   18    18     1     0     0
SMALL
bcc


@<TRIPOS>ATOM
      1 C1           0.0000     0.0000     0.0000 ca         1 SHA      -0.188600
      2 C2           1.3970     0.0000     0.0000 ca         1 SHA      -0.061000
      3 C3           2.0840     0.0000     1.1940 ca         1 SHA      -0.139000
      4 C4           1.3960    -0.0010     2.3970 ca         1 SHA      -0.044000
      5 C5           0.0160    -0.0020     2.4100 ca         1 SHA      -0.189000
      6 C6          -0.6920     0.0030     1.2180 ca         1 SHA       0.208100
      7 O6          -2.0480     0.0030     1.2310 oh         1 SHA      -0.451100
      8 C7          -0.7420     0.0000    -1.2750 c          1 SHA       0.597700
      9 O7          -1.9570    -0.0010    -1.2710 o          1 SHA      -0.598100
     10 N8          -0.0730     0.0010    -2.4440 ns         1 SHA      -0.070400
     11 O9          -0.7850     0.0020    -3.6680 oh         1 SHA      -0.436100
     12 H2           1.9390    -0.0010    -0.9380 ha         1 SHA       0.098000
     13 H3           3.1670     0.0000     1.1930 ha         1 SHA       0.107000
     14 H4           1.9440    -0.0030     3.3310 ha         1 SHA       0.102000
     15 H5          -0.5150    -0.0020     3.3540 ha         1 SHA       0.116000
     16 HO6         -2.3570     0.7020     1.7830 ho         1 SHA       0.400000
     17 HN8          0.9280    -0.0010    -2.4480 hn         1 SHA       0.158500
     18 HO9         -0.1750     0.0050    -4.3870 ho         1 SHA       0.390000
@<TRIPOS>BOND
     1     1     2 ar  
     2     1     6 ar  
     3     1     8 1   
     4     2     3 ar  
     5     2    12 1   
     6     3     4 ar  
     7     3    13 1   
     8     4     5 ar  
     9     4    14 1   
    10     5     6 ar  
    11     5    15 1   
    12     6     7 1   
    13     7    16 1   
    14     8     9 2   
    15     8    10 1   
    16    10    11 1   
    17    10    17 1   
    18    11    18 1   
@<TRIPOS>SUBSTRUCTURE
     1 SHA         1 TEMP              0 ****  ****    0 ROOT
