@<TRIPOS>MOLECULE
SHD
   24    24     1     0     0
SMALL
bcc


@<TRIPOS>ATOM
      1 C1          0.1910    0.1660   -0.0800 c3        1 SHD      0.297900
      2 C2          1.7240    0.0250   -0.0040 c3        1 SHD      0.093100
      3 C3          2.2430    0.1390    1.4370 c3        1 SHD      0.118100
      4 C4          1.5720    1.3100    2.1730 c3        1 SHD      0.090100
      5 C5          0.0420    1.1930    2.0790 c3        1 SHD      0.104100
      6 C6         -0.6490    2.3940    2.7260 c3        1 SHD      0.133400
      7 O1          2.3520    1.0550   -0.7450 oh        1 SHD     -0.579800
      8 O2          2.0520   -1.0710    2.1430 oh        1 SHD     -0.599800
      9 O3          1.9860    1.3590    3.5220 oh        1 SHD     -0.586800
     10 O4         -0.3690    1.1920    0.7080 os        1 SHD     -0.433600
     11 O5         -1.8870    1.9270    3.2380 oh        1 SHD     -0.604800
     12 H11        -0.1500    0.4020   -1.1290 h2        1 SHD      0.073700
     13 O6         -0.3670   -1.0420    0.3920 oh        1 SHD     -0.640800
     14 H2          2.0060   -0.9850   -0.4160 h1        1 SHD      0.072700
     15 H4          1.9130    2.2820    1.7190 h1        1 SHD      0.102700
     16 H5         -0.3060    0.2400    2.5680 h1        1 SHD      0.066700
     17 H16        -0.8160    3.2020    1.9660 h1        1 SHD      0.050200
     18 H26        -0.0090    2.7780    3.5660 h1        1 SHD      0.050200
     19 HO3         1.1420   -1.3660    1.9900 ho        1 SHD      0.422000
     20 HO4         1.9190    0.4600    3.8760 ho        1 SHD      0.416000
     21 HO6        -2.3720    2.7050    3.5370 ho        1 SHD      0.404000
     22 H111        3.3590    0.2940    1.4320 h1        1 SHD      0.107700
     23 H12         2.0820    0.9440   -1.6660 ho        1 SHD      0.409000
     24 H121       -1.3190   -0.9070    0.4840 ho        1 SHD      0.433000
@<TRIPOS>BOND
     1    1    2 1   
     2    1   10 1   
     3    1   12 1   
     4    1   13 1   
     5    2    3 1   
     6    2    7 1   
     7    2   14 1   
     8    3    4 1   
     9    3    8 1   
    10    3   22 1   
    11    4    5 1   
    12    4    9 1   
    13    4   15 1   
    14    5    6 1   
    15    5   10 1   
    16    5   16 1   
    17    6   11 1   
    18    6   17 1   
    19    6   18 1   
    20    7   23 1   
    21    8   19 1   
    22    9   20 1   
    23   11   21 1   
    24   13   24 1   
@<TRIPOS>SUBSTRUCTURE
     1 SHD         1 TEMP              0 ****  ****    0 ROOT
