@<TRIPOS>MOLECULE
molecule
   24    24     1     0     0
SMALL
bcc


@<TRIPOS>ATOM
      1 C1           0.0000     0.0000     0.0000 c3         1 SHD       0.335900
      2 C2           1.5310     0.0000     0.0000 c3         1 SHD       0.099100
      3 C3           2.0340     0.0000     1.4460 c3         1 SHD       0.127100
      4 C4           1.4540     1.2130     2.1790 c3         1 SHD       0.113100
      5 C5          -0.0740     1.1660     2.0950 c3         1 SHD       0.156100
      6 C6          -0.6620     2.4060     2.7720 c3         1 SHD       0.149400
      7 O1           2.0080     1.1680    -0.6710 oh         1 SHD      -0.592800
      8 O2           1.6110    -1.2000     2.0990 oh         1 SHD      -0.563800
      9 O3           1.8580     1.1830     3.5490 oh         1 SHD      -0.595800
     10 O4          -0.4750     1.1370     0.7230 os         1 SHD      -0.402600
     11 O5          -2.0870     2.3070     2.7970 oh         1 SHD      -0.599800
     12 H11         -0.3600     0.0470    -1.0210 h2         1 SHD       0.064700
     13 O6          -0.4760    -1.1940     0.6250 oh         1 SHD      -0.594800
     14 H2           1.8910    -0.8870    -0.5070 h1         1 SHD       0.047700
     15 H4           1.8120     2.1220     1.7110 h1         1 SHD       0.057700
     16 H5          -0.4340     0.2730     2.5920 h1         1 SHD       0.094700
     17 H16         -0.2870     2.4760     3.7870 h1         1 SHD       0.031700
     18 H26         -0.3710     3.2920     2.2190 h1         1 SHD       0.031700
     19 HO3          2.3670    -1.7000     2.3570 ho         1 SHD       0.398000
     20 HO4          2.6130     1.7350     3.6660 ho         1 SHD       0.399000
     21 HO6         -2.4460     3.0480     3.2550 ho         1 SHD       0.398000
     22 H111         3.1160     0.0590     1.4520 h1         1 SHD       0.035700
     23 H12          2.4600     0.9160    -1.4600 ho         1 SHD       0.405000
     24 H121        -1.1240    -1.6010     0.0730 ho         1 SHD       0.405000
@<TRIPOS>BOND
     1     1     2 1
     2     1    10 1
     3     1    12 1
     4     1    13 1
     5     2     3 1
     6     2     7 1
     7     2    14 1
     8     3     4 1
     9     3     8 1
    10     3    22 1
    11     4     5 1
    12     4     9 1
    13     4    15 1
    14     5     6 1
    15     5    10 1
    16     5    16 1
    17     6    11 1
    18     6    17 1
    19     6    18 1
    20     7    23 1
    21     8    19 1
    22     9    20 1
    23    11    21 1
    24    13    24 1
@<TRIPOS>SUBSTRUCTURE
     1 SHD         1 TEMP              0 ****  ****    0 ROOT
