@<TRIPOS>MOLECULE
molecule
   15    14     1     0     0
SMALL
bcc


@<TRIPOS>ATOM
      1 C4           0.0000     0.0000     0.0000 c          1 SHF       0.552100
      2 C5           1.5080     0.0000     0.0000 c3         1 SHF      -0.204100
      3 C3          -0.7520     0.0000     1.3060 c3         1 SHF      -0.160400
      4 C2          -2.2570    -0.0010     1.0260 c3         1 SHF      -0.174400
      5 C1          -3.0100    -0.0010     2.3310 c          1 SHF       0.889600
      6 O4          -0.6040     0.0040    -1.0450 o          1 SHF      -0.548100
      7 O1          -2.4060     0.0000     3.3770 o          1 SHF      -0.857300
      8 OH1         -4.3530    -0.0020     2.3310 o          1 SHF      -0.857300
      9 H51          1.8690    -0.8830     0.5130 hc         1 SHF       0.046700
     10 H52          1.8690     0.8860     0.5080 hc         1 SHF       0.046700
     11 H53          1.8690    -0.0030    -1.0210 hc         1 SHF       0.046700
     12 H31         -0.4900    -0.8840     1.8740 hc         1 SHF       0.068700
     13 H32         -0.4910     0.8850     1.8730 hc         1 SHF       0.068700
     14 H21         -2.5190     0.8830     0.4580 hc         1 SHF       0.041700
     15 H22         -2.5190    -0.8860     0.4580 hc         1 SHF       0.041700
@<TRIPOS>BOND
     1     1     2 1
     2     1     3 1
     3     1     6 2
     4     2     9 1
     5     2    10 1
     6     2    11 1
     7     3     4 1
     8     3    12 1
     9     3    13 1
    10     4     5 1
    11     4    14 1
    12     4    15 1
    13     5     7 1
    14     5     8 1
@<TRIPOS>SUBSTRUCTURE
     1 SHF         1 TEMP              0 ****  ****    0 ROOT
