@<TRIPOS>MOLECULE
SHF
   15    14     1     0     0
SMALL
bcc


@<TRIPOS>ATOM
      1 C4         -0.0230    0.7920   -0.0890 c         1 SHF      0.572100
      2 C5          0.9920   -0.3030    0.0490 c3        1 SHF     -0.203100
      3 C3         -1.0790    0.8620    0.9690 c3        1 SHF     -0.173400
      4 C2         -1.8650   -0.4200    1.1190 c3        1 SHF     -0.194400
      5 C1         -2.4600   -0.5510    2.5370 c         1 SHF      0.909600
      6 O4          0.0440    1.6020   -1.0270 o         1 SHF     -0.593100
      7 O1         -1.7930   -0.1000    3.5130 o         1 SHF     -0.845800
      8 OH1        -3.5760   -1.1310    2.6470 o         1 SHF     -0.845800
      9 H51         1.9540   -0.0160   -0.4380 hc        1 SHF      0.055033
     10 H52         0.6010   -1.2250   -0.4490 hc        1 SHF      0.055033
     11 H53         1.1710   -0.5320    1.1270 hc        1 SHF      0.055033
     12 H31        -1.7780    1.7110    0.7480 hc        1 SHF      0.077700
     13 H32        -0.5780    1.0830    1.9560 hc        1 SHF      0.077700
     14 H21        -1.2050   -1.3100    0.9600 hc        1 SHF      0.026700
     15 H22        -2.6910   -0.4640    0.3670 hc        1 SHF      0.026700
@<TRIPOS>BOND
     1    1    2 1   
     2    1    3 1   
     3    1    6 2   
     4    2    9 1   
     5    2   10 1   
     6    2   11 1   
     7    3    4 1   
     8    3   12 1   
     9    3   13 1   
    10    4    5 1   
    11    4   14 1   
    12    4   15 1   
    13    5    7 1   
    14    5    8 1   
@<TRIPOS>SUBSTRUCTURE
     1 SHF         1 TEMP              0 ****  ****    0 ROOT
