@<TRIPOS>MOLECULE
SHH
   39    39     1     0     0
SMALL
bcc


@<TRIPOS>ATOM
      1 O1           0.0000     0.0000     0.0000 oh         1 SHH      -0.438100
      2 O2           1.4840    -0.0000     2.2160 o          1 SHH      -0.617100
      3 N1           1.4160     0.0000     0.0000 ns         1 SHH      -0.064400
      4 C1           2.0900     0.0000     1.1670 c          1 SHH       0.569100
      5 C2           3.5970     0.0000     1.1660 c3         1 SHH      -0.091400
      6 C3           4.1080     0.0000     2.6080 c3         1 SHH      -0.015400
      7 C4           5.6380    -0.0010     2.6090 c3         1 SHH      -0.029400
      8 C5           6.1490    -0.0010     4.0500 c3         1 SHH      -0.030400
      9 C6           7.6770    -0.0020     4.0500 c3         1 SHH      -0.015400
     10 C7           8.1870    -0.0020     5.4920 c3         1 SHH      -0.099400
     11 C8           9.6950    -0.0030     5.4920 c          1 SHH       0.558100
     12 O3          10.3000    -0.0020     4.4420 o          1 SHH      -0.632100
     13 N2          10.3690    -0.0020     6.6580 ns         1 SHH      -0.039100
     14 C9          11.7640    -0.1180     6.6610 ca         1 SHH      -0.088400
     15 C10         12.3990    -0.8800     5.6910 ca         1 SHH      -0.118000
     16 C11         13.7760    -0.9920     5.6960 ca         1 SHH      -0.082500
     17 C12         14.5200    -0.3480     6.6660 ca         1 SHH      -0.115000
     18 C13         13.8900     0.4120     7.6340 ca         1 SHH      -0.082500
     19 C14         12.5140     0.5340     7.6310 ca         1 SHH      -0.118000
     20 HO1         -0.3140     0.0010    -0.8890 ho         1 SHH       0.391000
     21 HN1          1.9160    -0.0000    -0.8670 hn         1 SHH       0.153500
     22 H21          3.9580    -0.8850     0.6550 hc         1 SHH       0.025700
     23 H22          3.9580     0.8840     0.6550 hc         1 SHH       0.025700
     24 H31          3.7470     0.8850     3.1190 hc         1 SHH       0.030700
     25 H32          3.7460    -0.8840     3.1190 hc         1 SHH       0.030700
     26 H41          5.9980    -0.8860     2.0980 hc         1 SHH       0.013700
     27 H42          5.9990     0.8830     2.0980 hc         1 SHH       0.013700
     28 H51          5.7880     0.8840     4.5610 hc         1 SHH       0.014700
     29 H52          5.7870    -0.8850     4.5620 hc         1 SHH       0.014700
     30 H61          8.0380     0.8820     3.5390 hc         1 SHH       0.029700
     31 H62          8.0370    -0.8870     3.5400 hc         1 SHH       0.029700
     32 H71          7.8270     0.8830     6.0030 hc         1 SHH       0.028700
     33 H72          7.8260    -0.8860     6.0030 hc         1 SHH       0.028700
     34 HN2          9.8700     0.0580     7.5240 hn         1 SHH       0.166500
     35 H101        11.8170    -1.3850     4.9300 ha         1 SHH       0.121000
     36 H111        14.2730    -1.5870     4.9390 ha         1 SHH       0.102000
     37 H121        15.6000    -0.4390     6.6690 ha         1 SHH       0.102000
     38 H131        14.4760     0.9180     8.3910 ha         1 SHH       0.102000
     39 H141        12.0210     1.1290     8.3900 ha         1 SHH       0.121000
@<TRIPOS>BOND
     1     1     3 1   
     2     1    20 1   
     3     2     4 2   
     4     3     4 1   
     5     3    21 1   
     6     4     5 1   
     7     5     6 1   
     8     5    22 1   
     9     5    23 1   
    10     6     7 1   
    11     6    24 1   
    12     6    25 1   
    13     7     8 1   
    14     7    26 1   
    15     7    27 1   
    16     8     9 1   
    17     8    28 1   
    18     8    29 1   
    19     9    10 1   
    20     9    30 1   
    21     9    31 1   
    22    10    11 1   
    23    10    32 1   
    24    10    33 1   
    25    11    12 2   
    26    11    13 1   
    27    13    14 1   
    28    13    34 1   
    29    14    15 ar  
    30    14    19 ar  
    31    15    16 ar  
    32    15    35 1   
    33    16    17 ar  
    34    16    36 1   
    35    17    18 ar  
    36    17    37 1   
    37    18    19 ar  
    38    18    38 1   
    39    19    39 1   
@<TRIPOS>SUBSTRUCTURE
     1 SHH         1 TEMP              0 ****  ****    0 ROOT
