@<TRIPOS>MOLECULE
SHI
   20    20     1     0     0
SMALL
bcc


@<TRIPOS>ATOM
      1 O1          0.3840    0.9660   -0.0610 os        1 SHI     -0.101100
      2 N2          1.1820   -0.0850   -0.0850 nc        1 SHI     -0.411300
      3 C5         -0.1240    1.1700    1.2350 cc        1 SHI      0.274600
      4 C4          0.3860    0.1950    2.0740 cd        1 SHI     -0.324900
      5 C3          1.2330   -0.5980    1.1700 cd        1 SHI      0.507600
      6 O31         1.9160   -1.7100    1.5750 oh        1 SHI     -0.625300
      7 C41         0.1630    0.0620    3.5170 c3        1 SHI     -0.021100
      8 C42         0.6770   -1.2210    4.1380 c3        1 SHI     -0.067500
      9 N1          0.0100   -2.4480    3.6060 n4        1 SHI     -0.828600
     10 C43         0.4750   -1.1630    5.7330 c         1 SHI      0.936600
     11 O41         0.8090   -0.0940    6.2690 o         1 SHI     -0.758300
     12 O42         0.0160   -2.2210    6.2370 o         1 SHI     -0.758300
     13 HC5        -0.7900    2.0220    1.3410 h4        1 SHI      0.077100
     14 H31         2.5650   -1.9460    0.8890 ho        1 SHI      0.458000
     15 H411        0.6990    0.8940    4.0680 hc        1 SHI      0.099700
     16 H412       -0.9320    0.1900    3.7430 hc        1 SHI      0.099700
     17 HC42        1.7820   -1.3310    3.9500 hx        1 SHI      0.102700
     18 HN11       -0.9040   -2.2180    3.2240 hn        1 SHI      0.446467
     19 HN12       -0.1160   -3.0830    4.4260 hn        1 SHI      0.446467
     20 H13         0.5800   -2.8920    2.8890 hn        1 SHI      0.446467
@<TRIPOS>BOND
     1    1    2 1
     2    1    3 1
     3    2    5 2
     4    3    4 2
     5    3   13 1
     6    4    5 1
     7    4    7 1
     8    5    6 1
     9    6   14 1
    10    7    8 1
    11    7   15 1
    12    7   16 1
    13    8    9 1
    14    8   10 1
    15    8   17 1
    16    9   18 1
    17    9   19 1
    18    9   20 1
    19   10   11 1
    20   10   12 1
@<TRIPOS>SUBSTRUCTURE
     1 SHI         1 TEMP              0 ****  ****    0 ROOT
