@<TRIPOS>MOLECULE
SHL
   17    17     1     0     0
SMALL
bcc


@<TRIPOS>ATOM
      1 OAD         0.8640    1.3160    0.3190 o         1 SHL     -0.780300
      2 CAH         1.2890    0.1650    0.0660 c         1 SHL      0.935800
      3 OAA         1.2270   -0.8580    0.7860 o         1 SHL     -0.780300
      4 CAK         1.9520   -0.0230   -1.3270 cc        1 SHL      0.107900
      5 OAG         3.3000    0.2070   -1.2800 os        1 SHL     -0.185200
      6 CAF         4.0320    0.0790   -2.4470 cc        1 SHL      0.050900
      7 CAL         5.4680    0.3620   -2.2360 c3        1 SHL     -0.041900
      8 CAJ         3.4420   -0.2680   -3.6240 cd        1 SHL     -0.097100
      9 OAC         4.2220   -0.3820   -4.7590 oh        1 SHL     -0.517100
     10 CAI         1.9920   -0.5260   -3.7200 c         1 SHL      0.569500
     11 CAE         1.2970   -0.3730   -2.4680 cd        1 SHL     -0.378200
     12 OAB         1.4840   -0.8450   -4.8160 o         1 SHL     -0.643100
     13 H2          5.8610   -0.2530   -1.3880 hc        1 SHL      0.053700
     14 H3          6.0380    0.1220   -3.1670 hc        1 SHL      0.053700
     15 H4          5.6100    1.4420   -1.9820 hc        1 SHL      0.053700
     16 H5          3.6150   -0.6430   -5.4730 ho        1 SHL      0.433000
     17 H6          0.2130   -0.5450   -2.4500 ha        1 SHL      0.165000
@<TRIPOS>BOND
     1    1    2 1   
     2    2    3 1   
     3    2    4 1   
     4    4    5 1   
     5    4   11 2   
     6    5    6 1   
     7    6    7 1   
     8    6    8 2   
     9    7   13 1   
    10    7   14 1   
    11    7   15 1   
    12    8    9 1   
    13    8   10 1   
    14    9   16 1   
    15   10   11 1   
    16   10   12 2   
    17   11   17 1   
@<TRIPOS>SUBSTRUCTURE
     1 SHL         1 TEMP              0 ****  ****    0 ROOT
