@<TRIPOS>MOLECULE
molecule
   17    17     1     0     0
SMALL
bcc


@<TRIPOS>ATOM
      1 OAD          0.0000     0.0000     0.0000 o          1 SHL      -0.794800
      2 CAH          1.2140     0.0000     0.0000 c          1 SHL       0.889800
      3 OAA          1.8870     0.0000     1.1660 o          1 SHL      -0.794800
      4 CAK          1.9540    -0.0070    -1.2820 cc         1 SHL       0.099900
      5 OAG          3.2960    -0.0070    -1.2720 os         1 SHL      -0.153200
      6 CAF          4.0150    -0.0130    -2.4010 cd         1 SHL       0.086900
      7 CAL          5.5200    -0.0130    -2.3230 c3         1 SHL      -0.032900
      8 CAJ          3.4100    -0.0210    -3.6140 cc         1 SHL      -0.133100
      9 OAC          4.1500    -0.0270    -4.7540 oh         1 SHL      -0.504100
     10 CAI          1.9910    -0.0200    -3.6750 c          1 SHL       0.550500
     11 CAE          1.2650    -0.0190    -2.4530 cd         1 SHL      -0.350200
     12 OAB          1.4100    -0.0260    -4.7500 o          1 SHL      -0.620100
     13 H2           5.9030    -0.9390    -2.7330 hc         1 SHL       0.053367
     14 H3           5.9110     0.8230    -2.8900 hc         1 SHL       0.053367
     15 H4           5.8270     0.0780    -1.2880 hc         1 SHL       0.053367
     16 H5           3.9530    -0.8030    -5.2520 ho         1 SHL       0.410000
     17 H6           0.1820    -0.0180    -2.4550 ha         1 SHL       0.185000
@<TRIPOS>BOND
     1     1     2 1
     2     2     3 1
     3     2     4 1
     4    11     4 2
     5    11    10 1
     6     4     5 1
     7    12    10 2
     8    10     8 1
     9     5     6 1
    10     8     6 2
    11     8     9 1
    12     6     7 1
    13     7    13 1
    14     7    14 1
    15     7    15 1
    16     9    16 1
    17    11    17 1
@<TRIPOS>SUBSTRUCTURE
     1 SHL         1 TEMP              0 ****  ****    0 ROOT
