@<TRIPOS>MOLECULE
molecule
   34    35     1     0     0
SMALL
bcc


@<TRIPOS>ATOM
      1 C1           0.0000     0.0000     0.0000 c3         1 SHM       0.090700
      2 C2           1.5320     0.0000     0.0000 c3         1 SHM       0.088700
      3 N3           1.8880     0.0000     1.4280 ns         1 SHM      -0.590900
      4 C4           0.7650    -0.0010     2.1580 c          1 SHM       0.819500
      5 N5          -0.3580    -0.0020     1.4270 ns         1 SHM      -0.599900
      6 C6           2.1510     1.2430    -0.6740 c3         1 SHM       0.037400
      7 S7           0.7650     2.4540    -0.5500 ss         1 SHM      -0.337200
      8 C8          -0.6200     1.2410    -0.6740 c3         1 SHM       0.006700
      9 C9           3.3790     1.7320     0.0970 c3         1 SHM      -0.069400
     10 C10          3.9140     3.0090    -0.5520 c3         1 SHM      -0.082400
     11 C11          5.1410     3.4980     0.2180 c3         1 SHM      -0.087400
     12 C12          5.6760     4.7750    -0.4300 c3         1 SHM      -0.063400
     13 C13          6.9030     5.2650     0.3400 c3         1 SHM      -0.183400
     14 C14          7.4310     6.5220    -0.3000 c          1 SHM       0.891600
     15 O15          6.8830     6.9800    -1.2730 o          1 SHM      -0.857300
     16 O16          8.5110     7.1330     0.2110 o          1 SHM      -0.857300
     17 O17          0.7650    -0.0020     3.3740 o          1 SHM      -0.689500
     18 H11         -0.3690    -0.9010    -0.4740 h1         1 SHM       0.055700
     19 H12          1.9020    -0.9010    -0.4730 h1         1 SHM       0.060700
     20 HN3          2.8200     0.0000     1.7940 hn         1 SHM       0.368500
     21 HN5         -1.2900    -0.0030     1.7920 hn         1 SHM       0.356500
     22 H6           2.3920     1.0380    -1.7100 h1         1 SHM       0.077700
     23 H81         -0.8630     1.0370    -1.7100 h1         1 SHM       0.075700
     24 H82         -1.4870     1.5870    -0.1240 h1         1 SHM       0.075700
     25 H11A         3.1010     1.9380     1.1230 hc         1 SHM       0.053700
     26 H21          4.1460     0.9680     0.0760 hc         1 SHM       0.053700
     27 H12A         3.1460     3.7730    -0.5320 hc         1 SHM       0.047700
     28 H22          4.1910     2.8030    -1.5790 hc         1 SHM       0.047700
     29 H13          5.9080     2.7340     0.1980 hc         1 SHM       0.030200
     30 H23          4.8630     3.7040     1.2450 hc         1 SHM       0.030200
     31 H14          5.9540     4.5700    -1.4570 hc         1 SHM       0.046700
     32 H24          4.9090     5.5400    -0.4100 hc         1 SHM       0.046700
     33 H15          7.6700     4.5000     0.3210 hc         1 SHM       0.027200
     34 H25          6.6260     5.4720     1.3670 hc         1 SHM       0.027200
@<TRIPOS>BOND
     1     1     2 1
     2     1     5 1
     3     1     8 1
     4     1    18 1
     5     2     3 1
     6     2     6 1
     7     2    19 1
     8     3     4 1
     9     3    20 1
    10     4     5 1
    11     4    17 2
    12     5    21 1
    13     6     7 1
    14     6     9 1
    15     6    22 1
    16     7     8 1
    17     8    23 1
    18     8    24 1
    19     9    10 1
    20     9    25 1
    21     9    26 1
    22    10    11 1
    23    10    27 1
    24    10    28 1
    25    11    12 1
    26    11    29 1
    27    11    30 1
    28    12    13 1
    29    12    31 1
    30    12    32 1
    31    13    14 1
    32    13    33 1
    33    13    34 1
    34    14    15 1
    35    14    16 1
@<TRIPOS>SUBSTRUCTURE
     1 SHM         1 TEMP              0 ****  ****    0 ROOT
