@<TRIPOS>MOLECULE
molecule
   17    16     1     0     0
SMALL
bcc


@<TRIPOS>ATOM
      1 CA           0.0000     0.0000     0.0000 c3         1 SHO      -0.181400
      2 CB           1.5280     0.0000     0.0000 c3         1 SHO      -0.063400
      3 CG           2.0390     0.0000     1.4420 c3         1 SHO      -0.086400
      4 CD           3.5680    -0.0000     1.4420 c3         1 SHO       0.134400
      5 C           -0.5040     0.0000    -1.4200 c          1 SHO       0.891600
      6 OXT         -1.8230     0.0000    -1.6660 o          1 SHO      -0.857800
      7 OE1          4.0460    -0.0000     2.7880 oh         1 SHO      -0.623800
      8 O            0.2800     0.0000    -2.3380 o          1 SHO      -0.857800
      9 HAC1        -0.3610     0.8840     0.5110 hc         1 SHO       0.028700
     10 HAC2        -0.3610    -0.8840     0.5110 hc         1 SHO       0.028700
     11 HBC1         1.8890    -0.8840    -0.5110 hc         1 SHO       0.044700
     12 HBC2         1.8890     0.8840    -0.5110 hc         1 SHO       0.044700
     13 HGC1         1.6790    -0.8840     1.9530 hc         1 SHO       0.040700
     14 HGC2         1.6790     0.8840     1.9530 hc         1 SHO       0.040700
     15 HDC1         3.9290    -0.8840     0.9310 h1         1 SHO       0.015700
     16 HDC2         3.9290     0.8840     0.9310 h1         1 SHO       0.015700
     17 HE1          4.9890    -0.0000     2.7870 ho         1 SHO       0.384000
@<TRIPOS>BOND
     1     1     2 1
     2     1     5 1
     3     1     9 1
     4     1    10 1
     5     2     3 1
     6     2    11 1
     7     2    12 1
     8     3     4 1
     9     3    13 1
    10     3    14 1
    11     4     7 1
    12     4    15 1
    13     4    16 1
    14     5     6 1
    15     5     8 1
    16     7    17 1
@<TRIPOS>SUBSTRUCTURE
     1 SHO         1 TEMP              0 ****  ****    0 ROOT
