@<TRIPOS>MOLECULE
SHO
   17    16     1     0     0
SMALL
bcc


@<TRIPOS>ATOM
      1 CA          0.0120    0.0000   -0.0120 c3        1 SHO     -0.193400
      2 CB          1.5200    0.0000    0.0280 c3        1 SHO     -0.063400
      3 CG          2.0490   -0.0000    1.4460 c3        1 SHO     -0.082400
      4 CD          3.5660    0.0000    1.4420 c3        1 SHO      0.128400
      5 C          -0.5290   -0.0000   -1.4530 c         1 SHO      0.908600
      6 OXT         0.2880   -0.0020   -2.4190 o         1 SHO     -0.853800
      7 OE1         4.0080   -0.0010    2.7950 oh        1 SHO     -0.613800
      8 O          -1.7860    0.0010   -1.5970 o         1 SHO     -0.853800
      9 HAC1       -0.3900    0.9030    0.5130 hc        1 SHO      0.020700
     10 HAC2       -0.3900   -0.9020    0.5130 hc        1 SHO      0.020700
     11 HBC1        1.8990   -0.8990   -0.5250 hc        1 SHO      0.044700
     12 HBC2        1.8990    0.8990   -0.5250 hc        1 SHO      0.044700
     13 HGC1        1.6800   -0.9020    1.9990 hc        1 SHO      0.039700
     14 HGC2        1.6790    0.9010    2.0000 hc        1 SHO      0.039700
     15 HDC1        3.9590    0.9130    0.9190 h1        1 SHO      0.016200
     16 HDC2        3.9600   -0.9120    0.9170 h1        1 SHO      0.016200
     17 HE1         4.9700   -0.0010    2.7640 ho        1 SHO      0.381000
@<TRIPOS>BOND
     1    1    2 1   
     2    1    5 1   
     3    1    9 1   
     4    1   10 1   
     5    2    3 1   
     6    2   11 1   
     7    2   12 1   
     8    3    4 1   
     9    3   13 1   
    10    3   14 1   
    11    4    7 1   
    12    4   15 1   
    13    4   16 1   
    14    5    6 1   
    15    5    8 1   
    16    7   17 1   
@<TRIPOS>SUBSTRUCTURE
     1 SHO         1 TEMP              0 ****  ****    0 ROOT
