@<TRIPOS>MOLECULE
molecule
   48    47     1     0     0
SMALL
bcc


@<TRIPOS>ATOM
      1 S1           0.0000     0.0000     0.0000 ss         1 SHT      -0.315100
      2 OS3          4.6630    -1.4860    -0.5770 o          1 SHT      -0.718533
      3 SG2          4.1380    -1.2500     0.7210 s6         1 SHT       1.258800
      4 OS1          4.6610    -0.2410     1.5740 o          1 SHT      -0.718533
      5 OS2          4.4840    -2.5330     1.4610 o          1 SHT      -0.718533
      6 CD           2.3240    -1.2500     0.7210 c3         1 SHT      -0.254600
      7 CC           1.8130     0.0000     0.0000 c3         1 SHT       0.055700
      8 SK          -0.3560     0.0000     2.0180 ss         1 SHT      -0.313100
      9 CK6         -0.4110     1.7860     2.3280 c3         1 SHT       0.025700
     10 CK5         -1.5330     2.4130     1.4990 c3         1 SHT      -0.087400
     11 CK4         -1.5790     3.9200     1.7600 c3         1 SHT      -0.078400
     12 CK3         -2.7010     4.5470     0.9320 c3         1 SHT      -0.044200
     13 CK2         -2.7470     6.0300     1.1890 c2         1 SHT      -0.183200
     14 CK1         -2.5710     6.8860     0.1860 ce         1 SHT      -0.182200
     15 CK          -2.6150     8.3340     0.4370 c          1 SHT       0.625300
     16 OK          -2.8130     8.7500     1.5630 o          1 SHT      -0.682100
     17 N           -2.4360     9.2010    -0.5800 ns         1 SHT      -0.476900
     18 CA          -2.4800    10.6440    -0.3290 c3         1 SHT      -0.011300
     19 C           -3.8950    11.1380    -0.4900 c          1 SHT       0.922600
     20 O           -4.2790    12.0870     0.1510 o          1 SHT      -0.844800
     21 OXT         -4.7260    10.5250    -1.3450 o          1 SHT      -0.844800
     22 CB          -1.5730    11.3630    -1.3280 c3         1 SHT       0.174100
     23 CG2         -0.1370    10.8610    -1.1650 c3         1 SHT      -0.107100
     24 O3'         -2.0220    11.0960    -2.6570 os         1 SHT      -0.525200
     25 P           -2.3890    12.5170    -3.3180 p5         1 SHT       1.185900
     26 O1P         -1.1870    13.3800    -3.3330 o          1 SHT      -0.850500
     27 O2P         -2.9060    12.2910    -4.8260 o          1 SHT      -0.850500
     28 O8P         -3.5480    13.2280    -2.4550 o          1 SHT      -0.850500
     29 HCD1         1.9620    -2.1340     0.2110 h1         1 SHT       0.088700
     30 HCD2         1.9630    -1.2500     1.7430 h1         1 SHT       0.088700
     31 HCC1         2.1740     0.0000    -1.0210 h1         1 SHT       0.062700
     32 HCC2         2.1740     0.8840     0.5110 h1         1 SHT       0.062700
     33 HK61        -0.5970     1.9650     3.3800 h1         1 SHT       0.058700
     34 HK62         0.5360     2.2310     2.0480 h1         1 SHT       0.058700
     35 HK51        -2.4800     1.9690     1.7790 hc         1 SHT       0.051200
     36 HK52        -1.3480     2.2350     0.4470 hc         1 SHT       0.051200
     37 HK41        -0.6320     4.3650     1.4800 hc         1 SHT       0.039200
     38 HK42        -1.7650     4.0990     2.8130 hc         1 SHT       0.039200
     39 HK31        -3.6490     4.1030     1.2110 hc         1 SHT       0.035700
     40 HK32        -2.5160     4.3690    -0.1210 hc         1 SHT       0.035700
     41 HC2K        -2.9250     6.4010     2.1910 ha         1 SHT       0.141000
     42 HC1K        -2.3930     6.5160    -0.8160 ha         1 SHT       0.114000
     43 HN          -2.3030     8.8590    -1.5110 hn         1 SHT       0.326500
     44 HCA         -2.1390    10.8460     0.6790 h1         1 SHT       0.040700
     45 HCB         -1.6050    12.4300    -1.1430 h1         1 SHT       0.083700
     46 HG21         0.5510    11.5960    -1.5650 hc         1 SHT       0.009700
     47 HG22         0.0740    10.7040    -0.1140 hc         1 SHT       0.009700
     48 HG23        -0.0180     9.9260    -1.7000 hc         1 SHT       0.009700
@<TRIPOS>BOND
     1     1     7 1
     2     1     8 1
     3     2     3 1
     4     3     4 1
     5     3     5 1
     6     3     6 1
     7     6     7 1
     8     6    29 1
     9     6    30 1
    10     7    31 1
    11     7    32 1
    12     8     9 1
    13     9    10 1
    14     9    33 1
    15     9    34 1
    16    10    11 1
    17    10    35 1
    18    10    36 1
    19    11    12 1
    20    11    37 1
    21    11    38 1
    22    12    13 1
    23    12    39 1
    24    12    40 1
    25    13    14 2
    26    13    41 1
    27    14    15 1
    28    14    42 1
    29    15    16 2
    30    15    17 1
    31    17    18 1
    32    17    43 1
    33    18    19 1
    34    18    22 1
    35    18    44 1
    36    19    20 1
    37    19    21 1
    38    22    23 1
    39    22    24 1
    40    22    45 1
    41    23    46 1
    42    23    47 1
    43    23    48 1
    44    24    25 1
    45    25    26 1
    46    25    27 1
    47    25    28 1
@<TRIPOS>SUBSTRUCTURE
     1 SHT         1 TEMP              0 ****  ****    0 ROOT
