@<TRIPOS>MOLECULE
SHU
   20    19     1     0     0
SMALL
bcc


@<TRIPOS>ATOM
      1 C4         -0.0270   -1.1340    0.5930 c         1 SHU      0.595100
      2 C5          1.2220   -1.0880   -0.2450 c3        1 SHU     -0.312400
      3 C6          2.2650   -0.1420    0.2800 c         1 SHU      0.604100
      4 O6          3.4460   -0.4940    0.4090 o         1 SHU     -0.582100
      5 C7          1.7950    1.2400    0.5810 c3        1 SHU     -0.228100
      6 C3         -1.3240   -1.0040   -0.1530 c3        1 SHU     -0.166400
      7 C2         -1.6060    0.4310   -0.5440 c3        1 SHU     -0.194400
      8 C1         -0.7970    0.8780   -1.7740 c         1 SHU      0.898600
      9 O1         -0.6030    0.0440   -2.7080 o         1 SHU     -0.844300
     10 OH1        -0.3510    2.0610   -1.7840 o         1 SHU     -0.844300
     11 O4L         0.0100   -1.3120    1.8180 o         1 SHU     -0.583100
     12 HC51        0.9570   -0.7540   -1.2950 hc        1 SHU      0.113700
     13 HC52        1.6420   -2.1270   -0.3050 hc        1 SHU      0.113700
     14 HC1         2.6510    1.9100    0.8310 hc        1 SHU      0.080700
     15 HC2         1.0880    1.2040    1.4470 hc        1 SHU      0.080700
     16 HC3         1.2360    1.6550   -0.3060 hc        1 SHU      0.080700
     17 HC31       -2.1540   -1.3970    0.4900 hc        1 SHU      0.059200
     18 HC32       -1.2700   -1.6220   -1.0920 hc        1 SHU      0.059200
     19 HC21       -2.6910    0.5280   -0.8030 hc        1 SHU      0.035200
     20 HC22       -1.3890    1.1210    0.3090 hc        1 SHU      0.035200
@<TRIPOS>BOND
     1    1    2 1   
     2    1    6 1   
     3    1   11 2   
     4    2    3 1   
     5    2   12 1   
     6    2   13 1   
     7    3    4 2   
     8    3    5 1   
     9    5   14 1   
    10    5   15 1   
    11    5   16 1   
    12    6    7 1   
    13    6   17 1   
    14    6   18 1   
    15    7    8 1   
    16    7   19 1   
    17    7   20 1   
    18    8    9 1   
    19    8   10 1   
@<TRIPOS>SUBSTRUCTURE
     1 SHU         1 TEMP              0 ****  ****    0 ROOT
