@<TRIPOS>MOLECULE
molecule
   20    19     1     0     0
SMALL
bcc


@<TRIPOS>ATOM
      1 C4           0.0000     0.0000     0.0000 c          1 SHU       0.544100
      2 C5           1.5070     0.0000     0.0000 c3         1 SHU      -0.293400
      3 C6           2.0090     0.0000     1.4210 c          1 SHU       0.548100
      4 O6           1.2250     0.0000     2.3380 o          1 SHU      -0.479100
      5 C7           3.4920    -0.0000     1.6960 c3         1 SHU      -0.199100
      6 C3          -0.7540     0.0000    -1.3040 c3         1 SHU      -0.155400
      7 C2          -2.2570    -0.0000    -1.0240 c3         1 SHU      -0.173400
      8 C1          -3.0120     0.0000    -2.3280 c          1 SHU       0.890600
      9 O1          -2.4080     0.0000    -3.3750 o          1 SHU      -0.857300
     10 OH1         -4.3530     0.0000    -2.3280 o          1 SHU      -0.857300
     11 O4L         -0.6030     0.0000     1.0460 o          1 SHU      -0.497100
     12 HC51         1.8680     0.8840    -0.5110 hc         1 SHU       0.076700
     13 HC52         1.8680    -0.8840    -0.5110 hc         1 SHU       0.076700
     14 HC1          3.9400    -0.8850     1.2590 hc         1 SHU       0.052033
     15 HC2          3.6600    -0.0000     2.7660 hc         1 SHU       0.052033
     16 HC3          3.9400     0.8850     1.2590 hc         1 SHU       0.052033
     17 HC31        -0.4920     0.8840    -1.8720 hc         1 SHU       0.066700
     18 HC32        -0.4920    -0.8840    -1.8720 hc         1 SHU       0.066700
     19 HC21        -2.5190     0.8840    -0.4560 hc         1 SHU       0.042700
     20 HC22        -2.5190    -0.8840    -0.4560 hc         1 SHU       0.042700
@<TRIPOS>BOND
     1     1     2 1
     2     1     6 1
     3     1    11 2
     4     2     3 1
     5     2    12 1
     6     2    13 1
     7     3     4 2
     8     3     5 1
     9     5    14 1
    10     5    15 1
    11     5    16 1
    12     6     7 1
    13     6    17 1
    14     6    18 1
    15     7     8 1
    16     7    19 1
    17     7    20 1
    18     8     9 1
    19     8    10 1
@<TRIPOS>SUBSTRUCTURE
     1 SHU         1 TEMP              0 ****  ****    0 ROOT
