@<TRIPOS>MOLECULE
SHV
   22    21     1     0     0
SMALL
bcc


@<TRIPOS>ATOM
      1 C1          0.0470    0.0000    0.0270 c         1 SHV      0.907600
      2 O1          1.3090   -0.0060   -0.0730 o         1 SHV     -0.853800
      3 O2         -0.5690    0.0020    1.1320 o         1 SHV     -0.853800
      4 C2         -0.7590    0.0050   -1.2830 c3        1 SHV     -0.193400
      5 C3         -2.2480    0.0040   -1.0430 c3        1 SHV     -0.065400
      6 C4         -3.0290    0.0100   -2.3400 c3        1 SHV     -0.078400
      7 C5         -4.5220    0.0090   -2.0880 c3        1 SHV     -0.078400
      8 C6         -5.3060    0.0140   -3.3830 c3        1 SHV     -0.081400
      9 C7         -6.7920    0.0130   -3.1360 c3        1 SHV     -0.089100
     10 H21        -0.4620   -0.8950   -1.8790 hc        1 SHV      0.018700
     11 H22        -0.4630    0.9100   -1.8710 hc        1 SHV      0.018700
     12 H31        -2.5200    0.8990   -0.4250 hc        1 SHV      0.043700
     13 H32        -2.5200   -0.8980   -0.4340 hc        1 SHV      0.043700
     14 H41        -2.7520   -0.8890   -2.9510 hc        1 SHV      0.025700
     15 H42        -2.7520    0.9140   -2.9420 hc        1 SHV      0.025700
     16 H51        -4.7990   -0.8960   -1.4850 hc        1 SHV      0.035700
     17 H52        -4.7990    0.9080   -1.4780 hc        1 SHV      0.035700
     18 H61        -5.0250   -0.8860   -3.9930 hc        1 SHV      0.032700
     19 H62        -5.0260    0.9190   -3.9850 hc        1 SHV      0.032700
     20 H71        -7.3510    0.0160   -4.1030 hc        1 SHV      0.024367
     21 H72        -7.0940   -0.8940   -2.5580 hc        1 SHV      0.024367
     22 H73        -7.0940    0.9150   -2.5500 hc        1 SHV      0.024367
@<TRIPOS>BOND
     1    1    2 1   
     2    1    3 1   
     3    1    4 1   
     4    4    5 1   
     5    4   10 1   
     6    4   11 1   
     7    5    6 1   
     8    5   12 1   
     9    5   13 1   
    10    6    7 1   
    11    6   14 1   
    12    6   15 1   
    13    7    8 1   
    14    7   16 1   
    15    7   17 1   
    16    8    9 1   
    17    8   18 1   
    18    8   19 1   
    19    9   20 1   
    20    9   21 1   
    21    9   22 1   
@<TRIPOS>SUBSTRUCTURE
     1 SHV         1 TEMP              0 ****  ****    0 ROOT
