@<TRIPOS>MOLECULE
molecule
   22    21     1     0     0
SMALL
bcc


@<TRIPOS>ATOM
      1 C1           0.0000     0.0000     0.0000 c          1 SHV       0.891600
      2 O1           1.3420     0.0000     0.0000 o          1 SHV      -0.858800
      3 O2          -0.6050     0.0000     1.0460 o          1 SHV      -0.858800
      4 C2          -0.7530     0.0050    -1.3050 c3         1 SHV      -0.183400
      5 C3          -2.2570     0.0040    -1.0260 c3         1 SHV      -0.063400
      6 C4          -3.0220     0.0100    -2.3530 c3         1 SHV      -0.089400
      7 C5          -4.5260     0.0080    -2.0730 c3         1 SHV      -0.081400
      8 C6          -5.2900     0.0140    -3.3980 c3         1 SHV      -0.086400
      9 C7          -6.7950     0.0120    -3.1200 c3         1 SHV      -0.092100
     10 H21         -0.4910    -0.8780    -1.8760 hc         1 SHV       0.026700
     11 H22         -0.4910     0.8910    -1.8700 hc         1 SHV       0.026700
     12 H31         -2.5190     0.8860    -0.4550 hc         1 SHV       0.044700
     13 H32         -2.5190    -0.8830    -0.4620 hc         1 SHV       0.044700
     14 H41         -2.7600    -0.8720    -2.9240 hc         1 SHV       0.028700
     15 H42         -2.7600     0.8970    -2.9170 hc         1 SHV       0.028700
     16 H51         -4.7880    -0.8790    -1.5090 hc         1 SHV       0.038700
     17 H52         -4.7880     0.8900    -1.5010 hc         1 SHV       0.038700
     18 H61         -5.0270    -0.8680    -3.9700 hc         1 SHV       0.034700
     19 H62         -5.0280     0.9010    -3.9620 hc         1 SHV       0.034700
     20 H71         -7.3360     0.0160    -4.0590 hc         1 SHV       0.025367
     21 H72         -7.0570     0.8940    -2.5480 hc         1 SHV       0.025367
     22 H73         -7.0570    -0.8750    -2.5560 hc         1 SHV       0.025367
@<TRIPOS>BOND
     1     1     2 1
     2     1     3 1
     3     1     4 1
     4     4     5 1
     5     4    10 1
     6     4    11 1
     7     5     6 1
     8     5    12 1
     9     5    13 1
    10     6     7 1
    11     6    14 1
    12     6    15 1
    13     7     8 1
    14     7    16 1
    15     7    17 1
    16     8     9 1
    17     8    18 1
    18     8    19 1
    19     9    20 1
    20     9    21 1
    21     9    22 1
@<TRIPOS>SUBSTRUCTURE
     1 SHV         1 TEMP              0 ****  ****    0 ROOT
