@<TRIPOS>MOLECULE
molecule
   67    66     1     0     0
SMALL
bcc


@<TRIPOS>ATOM
      1 C1           0.0000     0.0000     0.0000 c          1 SHW       0.571700
      2 O1           1.2120     0.0000     0.0000 o          1 SHW      -0.543100
      3 S1          -0.8560     0.0000     1.4830 ss         1 SHW      -0.249700
      4 C2          -0.7540     0.0070    -1.3050 c3         1 SHW      -0.172400
      5 C3           0.2400     0.0120    -2.4670 c3         1 SHW       0.158100
      6 O3           0.9830     1.2330    -2.4540 oh         1 SHW      -0.603800
      7 C4          -0.5210    -0.1070    -3.7900 c3         1 SHW      -0.098400
      8 C5           0.4770    -0.2280    -4.9430 c3         1 SHW      -0.082400
      9 C6          -0.2840    -0.3460    -6.2650 c3         1 SHW      -0.080400
     10 C7           0.7140    -0.4660    -7.4190 c3         1 SHW      -0.084400
     11 C8          -0.0470    -0.5850    -8.7410 c3         1 SHW      -0.092100
     12 O23          2.7220    -4.9750    13.8720 o          1 SHW      -0.910167
     13 P24          3.4480    -5.0160    12.5820 p5         1 SHW       1.180900
     14 O26          2.4170    -5.3630    11.3970 o          1 SHW      -0.910167
     15 O27          4.1250    -3.5830    12.3020 os         1 SHW      -0.585200
     16 O28          4.5920    -6.1470    12.6460 o          1 SHW      -0.910167
     17 C29          4.3290    -1.1940    11.9970 c3         1 SHW      -0.074000
     18 C30          5.4110    -1.1280    13.0770 c3         1 SHW      -0.067100
     19 C31          4.9850    -1.4040    10.6310 c3         1 SHW      -0.067100
     20 C32          3.5370     0.1140    11.9860 c3         1 SHW       0.088100
     21 O33          3.0320     0.3750    13.2970 oh         1 SHW      -0.551800
     22 C34          2.3880    -0.0020    11.0190 c          1 SHW       0.647100
     23 O35          1.2530    -0.0960    11.4340 o          1 SHW      -0.579100
     24 N36          2.6220    -0.0020     9.6920 ns         1 SHW      -0.602900
     25 C37          1.4990    -0.0020     8.7500 c3         1 SHW       0.130000
     26 C38          2.0360    -0.0020     7.3160 c3         1 SHW      -0.174400
     27 C39          0.8820    -0.0010     6.3480 c          1 SHW       0.664100
     28 O40         -0.2580    -0.0010     6.7630 o          1 SHW      -0.593100
     29 N41          1.1160    -0.0010     5.0210 ns         1 SHW      -0.598900
     30 C42         -0.0070    -0.0000     4.0790 c3         1 SHW       0.126000
     31 C43          0.5300    -0.0000     2.6470 c3         1 SHW      -0.010300
     32 H2          -1.3760     0.8920    -1.3580 hc         1 SHW       0.080200
     33 H2A         -1.3770    -0.8770    -1.3670 hc         1 SHW       0.080200
     34 H3           0.9200    -0.8250    -2.3650 h1         1 SHW       0.047700
     35 HO3          1.9050     1.0400    -2.4760 ho         1 SHW       0.411000
     36 H4          -1.1340     0.7740    -3.9340 hc         1 SHW       0.049700
     37 H4A         -1.1520    -0.9870    -3.7650 hc         1 SHW       0.049700
     38 H5           1.1090     0.6520    -4.9680 hc         1 SHW       0.044700
     39 H5A          1.0910    -1.1090    -4.7990 hc         1 SHW       0.044700
     40 H6          -0.8970     0.5360    -6.4090 hc         1 SHW       0.040700
     41 H6A         -0.9160    -1.2250    -6.2410 hc         1 SHW       0.040700
     42 H7           1.3280    -1.3470    -7.2750 hc         1 SHW       0.040700
     43 H7A          1.3460     0.4130    -7.4440 hc         1 SHW       0.040700
     44 H8           0.6590    -0.6080    -9.5630 hc         1 SHW       0.031033
     45 H8A         -0.6300    -1.4980    -8.7410 hc         1 SHW       0.031033
     46 H8B         -0.7070     0.2660    -8.8560 hc         1 SHW       0.031033
     47 H28          2.6190    -2.4080    11.5290 h1         1 SHW       0.031200
     48 H28A         2.9210    -2.2130    13.2610 h1         1 SHW       0.031200
     49 H30          4.9490    -1.1820    14.0550 hc         1 SHW       0.028367
     50 H30A         5.9550    -0.1950    12.9860 hc         1 SHW       0.028367
     51 H30B         6.0960    -1.9580    12.9540 hc         1 SHW       0.028367
     52 H31          5.8910    -1.9870    10.7510 hc         1 SHW       0.028367
     53 H31A         4.3000    -1.9310     9.9780 hc         1 SHW       0.028367
     54 H31B         5.2300    -0.4420    10.1960 hc         1 SHW       0.028367
     55 H32          4.1850     0.9270    11.6810 h1         1 SHW       0.006700
     56 HO33         3.1110     1.2950    13.4870 ho         1 SHW       0.372000
     57 HN36         3.5600     0.0590     9.3500 hn         1 SHW       0.308500
     58 H37          0.8940    -0.8860     8.9090 h1         1 SHW       0.068700
     59 H37A         0.8950     0.8830     8.9090 h1         1 SHW       0.068700
     60 H38          2.6410     0.8820     7.1570 hc         1 SHW       0.063200
     61 H38A         2.6410    -0.8870     7.1570 hc         1 SHW       0.063200
     62 HN41         2.0560     0.0190     4.6780 hn         1 SHW       0.311500
     63 H42         -0.6120    -0.8840     4.2380 h1         1 SHW       0.063200
     64 H42A        -0.6110     0.8850     4.2390 h1         1 SHW       0.063200
     65 H43          1.1350    -0.8850     2.4880 h1         1 SHW       0.079200
     66 H43A         1.1350     0.8840     2.4880 h1         1 SHW       0.079200
     67 C28          3.3850    -2.3610    12.2930 c3         1 SHW       0.229400
@<TRIPOS>BOND
     1     1     2 2
     2     1     3 1
     3     1     4 1
     4     3    31 1
     5     4     5 1
     6     5     6 1
     7     5     7 1
     8     7     8 1
     9     8     9 1
    10     9    10 1
    11    10    11 1
    12    12    13 1
    13    13    14 1
    14    13    15 1
    15    13    16 1
    16    15    67 1
    17    67    17 1
    18    17    18 1
    19    17    19 1
    20    17    20 1
    21    20    21 1
    22    20    22 1
    23    22    23 2
    24    22    24 1
    25    24    25 1
    26    25    26 1
    27    26    27 1
    28    27    28 2
    29    27    29 1
    30    29    30 1
    31    30    31 1
    32     4    32 1
    33     4    33 1
    34     5    34 1
    35     6    35 1
    36     7    36 1
    37     7    37 1
    38     8    38 1
    39     8    39 1
    40     9    40 1
    41     9    41 1
    42    10    42 1
    43    10    43 1
    44    11    44 1
    45    11    45 1
    46    11    46 1
    47    67    47 1
    48    67    48 1
    49    18    49 1
    50    18    50 1
    51    18    51 1
    52    19    52 1
    53    19    53 1
    54    19    54 1
    55    20    55 1
    56    21    56 1
    57    24    57 1
    58    25    58 1
    59    25    59 1
    60    26    60 1
    61    26    61 1
    62    29    62 1
    63    30    63 1
    64    30    64 1
    65    31    65 1
    66    31    66 1
@<TRIPOS>SUBSTRUCTURE
     1 SHW         1 TEMP              0 ****  ****    0 ROOT
