@<TRIPOS>MOLECULE
molecule
   45    47     1     0     0
SMALL
bcc


@<TRIPOS>ATOM
      1 Cl           0.0000     0.0000     0.0000 cl         1 SHX      -0.077400
      2 C8           1.7360     0.0000     0.0000 ca         1 SHX      -0.277200
      3 C7           2.4440     0.0000     1.1870 ca         1 SHX       0.526600
      4 C19          1.7170     0.0060     2.5080 c3         1 SHX      -0.149400
      5 N2           3.7680    -0.0050     1.1520 nb         1 SHX      -0.744000
      6 C6           4.4190    -0.0110    -0.0010 cp         1 SHX       0.698000
      7 C5           5.9030    -0.0170     0.0060 cp         1 SHX       0.358300
      8 C4           6.5870    -0.0160     1.2190 ca         1 SHX      -0.187300
      9 C3           7.9730    -0.0230     1.2090 ca         1 SHX      -0.096000
     10 C2           8.6260    -0.0300    -0.0130 ca         1 SHX      -0.222300
     11 C1           7.8820    -0.0290    -1.1810 ca         1 SHX       0.405200
     12 N1           6.5660    -0.0280    -1.1430 nb         1 SHX      -0.684000
     13 N3           3.7790    -0.0110    -1.1620 nb         1 SHX      -0.795000
     14 C9           2.4510    -0.0060    -1.2020 ca         1 SHX       0.720200
     15 N4           1.7850    -0.0130    -2.4180 nu         1 SHX      -0.881900
     16 C10          2.5450    -0.0180    -3.6700 c3         1 SHX       0.184500
     17 C11          2.9120    -1.4350    -4.0290 c          1 SHX       0.453100
     18 N5           3.6170    -1.6860    -5.1490 nz         1 SHX      -0.682400
     19 O            2.5710    -2.3500    -3.3080 o          1 SHX      -0.390100
     20 C12          1.6920     0.5850    -4.7870 c3         1 SHX      -0.045100
     21 C13          1.4270     2.0390    -4.4880 ca         1 SHX      -0.117300
     22 C18          2.3000     3.0090    -4.9460 ca         1 SHX      -0.113500
     23 C17          2.0580     4.3410    -4.6710 ca         1 SHX      -0.111000
     24 C16          0.9450     4.7040    -3.9390 ca         1 SHX      -0.099000
     25 C15          0.0710     3.7350    -3.4820 ca         1 SHX      -0.111000
     26 C14          0.3100     2.4030    -3.7610 ca         1 SHX      -0.113500
     27 H1           2.4370    -0.0000     3.3170 hc         1 SHX       0.072033
     28 H2           1.0880    -0.8730     2.5780 hc         1 SHX       0.072033
     29 H3           1.1030     0.8960     2.5780 hc         1 SHX       0.072033
     30 H4           6.0440    -0.0110     2.1560 ha         1 SHX       0.171000
     31 H5           8.5330    -0.0230     2.1370 ha         1 SHX       0.155000
     32 H6           9.7080    -0.0330    -0.0550 ha         1 SHX       0.150000
     33 H7           8.3900    -0.0360    -2.1380 h4         1 SHX       0.023100
     34 H8           0.7850    -0.0600    -2.4390 hn         1 SHX       0.479800
     35 H9           3.4470     0.5680    -3.5470 h1         1 SHX       0.134700
     36 H10          2.9880    -1.8830    -5.9020 hn         1 SHX       0.474467
     37 H11          4.1740    -0.8870    -5.3790 hn         1 SHX       0.474467
     38 H12          2.2200     0.5010    -5.7300 hc         1 SHX       0.053200
     39 H13          0.7510     0.0530    -4.8520 hc         1 SHX       0.053200
     40 H14          3.1730     2.7240    -5.5200 ha         1 SHX       0.123500
     41 H15          2.7420     5.1010    -5.0290 ha         1 SHX       0.147500
     42 H16          0.7560     5.7490    -3.7220 ha         1 SHX       0.149000
     43 H17         -0.8030     4.0210    -2.9090 ha         1 SHX       0.147500
     44 H18         -0.3740     1.6430    -3.4020 ha         1 SHX       0.123500
     45 H53          4.2360    -2.4560    -4.9880 hn         1 SHX       0.474467
@<TRIPOS>BOND
     1    11    10 ar
     2    11    12 ar
     3    10     9 ar
     4    12     7 ar
     5     9     8 ar
     6     7     8 ar
     7     7     6 1
     8     5     6 ar
     9     5     3 ar
    10     6    13 ar
    11     4     3 1
    12     3     2 ar
    13    24    25 ar
    14    24    23 ar
    15    25    26 ar
    16    13    14 ar
    17    23    22 ar
    18     2    14 ar
    19     2     1 1
    20    26    21 ar
    21    14    15 1
    22    22    21 ar
    23    21    20 1
    24    15    16 1
    25    16    20 1
    26    16    17 1
    27    17    19 2
    28    17    18 1
    29     4    27 1
    30     4    28 1
    31     4    29 1
    32     8    30 1
    33     9    31 1
    34    10    32 1
    35    11    33 1
    36    15    34 1
    37    16    35 1
    38    18    36 1
    39    18    37 1
    40    20    38 1
    41    20    39 1
    42    22    40 1
    43    23    41 1
    44    24    42 1
    45    25    43 1
    46    26    44 1
    47    45    18 1
@<TRIPOS>SUBSTRUCTURE
     1 SHX         1 TEMP              0 ****  ****    0 ROOT
