@<TRIPOS>MOLECULE
SHY
   58    63     1     0     0
SMALL
bcc


@<TRIPOS>ATOM
      1 N1           0.0000     0.0000     0.0000 n2         1 SHY      -0.467100
      2 C3           1.3020     0.0000     0.0000 ce         1 SHY       0.239800
      3 N2           1.9900     0.0000     1.1940 nz         1 SHY       0.121400
      4 C4           2.0440     0.0000    -1.2820 ca         1 SHY      -0.200900
      5 C9           1.3510     0.0010    -2.4910 ca         1 SHY      -0.053000
      6 C8           2.0470     0.0010    -3.6820 ca         1 SHY      -0.062000
      7 C7           3.4300     0.0000    -3.6780 ca         1 SHY      -0.020300
      8 C6           4.1230    -0.0000    -2.4810 ca         1 SHY      -0.062000
      9 C5           3.4380     0.0060    -1.2830 ca         1 SHY      -0.053000
     10 C10          4.1840     0.0010    -4.9820 c3         1 SHY       0.168800
     11 N11          5.4970    -0.6610    -4.8160 n3         1 SHY      -0.544600
     12 C12          5.2590    -2.0940    -5.1950 c3         1 SHY       0.124800
     13 C13          5.1140    -2.1190    -6.7290 c3         1 SHY       0.169100
     14 C14          5.8250    -0.8450    -7.2230 c3         1 SHY      -0.078400
     15 C15          6.3210    -0.1270    -5.9520 c3         1 SHY       0.154500
     16 C16          5.9290     1.3610    -6.0430 c3         1 SHY      -0.142700
     17 C17          6.7820     2.1730    -5.0960 c          1 SHY       0.638500
     18 N19          6.0200     2.6420    -4.1020 n          1 SHY      -0.120400
     19 C20          4.7160     2.2970    -4.1790 c          1 SHY       0.650500
     20 O21          3.8590     2.6170    -3.3820 o          1 SHY      -0.644500
     21 C22          4.5150     1.4450    -5.4110 c3         1 SHY      -0.139700
     22 C23          6.5550     3.4690    -3.0180 c3         1 SHY       0.112300
     23 C24          6.4660     4.9230    -3.4050 ca         1 SHY      -0.151300
     24 C32          5.3340     5.6520    -3.0930 ca         1 SHY      -0.086000
     25 C31          5.2480     6.9860    -3.4460 ca         1 SHY      -0.093000
     26 C30          6.2980     7.5960    -4.1120 ca         1 SHY       0.075100
     27 O29          6.4630     8.8720    -4.5650 os         1 SHY      -0.308900
     28 C28          7.5420     8.8070    -5.5180 c3         1 SHY       0.432200
     29 O20          5.7440    -3.2810    -7.2700 oh         1 SHY      -0.564800
     30 O27          8.3170     7.6790    -5.0760 os         1 SHY      -0.305900
     31 C26          7.4380     6.8610    -4.4280 ca         1 SHY       0.060100
     32 C25          7.5190     5.5260    -4.0660 ca         1 SHY      -0.066000
     33 O24          7.9720     2.3700    -5.2210 o          1 SHY      -0.598500
     34 H1N         -0.5010    -0.0000     0.8660 hn         1 SHY       0.334400
     35 H2N1         2.5630     0.8190     1.2490 hn         1 SHY       0.226467
     36 H2N2         1.3400    -0.0030     1.9540 hn         1 SHY       0.226467
     37 H9           0.2670     0.0020    -2.4950 ha         1 SHY       0.103000
     38 H8           1.5090     0.0010    -4.6220 ha         1 SHY       0.131500
     39 H6           5.2060     0.0020    -2.4840 ha         1 SHY       0.131500
     40 H5           3.9820     0.0060    -0.3470 ha         1 SHY       0.103000
     41 H10          3.6100    -0.4960    -5.7540 h1         1 SHY       0.049700
     42 H121         6.1030    -2.7020    -4.8930 h1         1 SHY       0.039200
     43 H122         4.3490    -2.4530    -4.7310 h1         1 SHY       0.039200
     44 H13          4.0660    -2.0910    -7.0040 h1         1 SHY       0.003700
     45 H141         5.1290    -0.2140    -7.7610 hc         1 SHY       0.043700
     46 H142         6.6660    -1.1080    -7.8540 hc         1 SHY       0.043700
     47 H15          7.3830    -0.2640    -5.7880 h1         1 SHY       0.078700
     48 H16          5.9530     1.7400    -7.0580 hc         1 SHY       0.082700
     49 H22          3.7800     1.8590    -6.0900 hc         1 SHY       0.074700
     50 H231         7.5900     3.2060    -2.8400 h1         1 SHY       0.040700
     51 H232         5.9790     3.2990    -2.1170 h1         1 SHY       0.040700
     52 H32          4.5200     5.1820    -2.5550 ha         1 SHY       0.115000
     53 H31          4.3600     7.5550    -3.2000 ha         1 SHY       0.116000
     54 H281         7.1570     8.6350    -6.5160 h2         1 SHY       0.018200
     55 H282         8.1350     9.7130    -5.4810 h2         1 SHY       0.018200
     56 H20          5.1120    -3.7810    -7.7610 ho         1 SHY       0.397000
     57 H25          8.4200     4.9630    -4.2760 ha         1 SHY       0.131000
     58 H23          2.5580    -0.8220     1.2520 hn         1 SHY       0.226467
@<TRIPOS>BOND
     1     1     2 2   
     2     1    34 1   
     3     2     3 1   
     4     2     4 1   
     5     3    35 1   
     6     3    36 1   
     7     3    58 1   
     8     4     5 ar  
     9     4     9 ar  
    10     5     6 ar  
    11     5    37 1   
    12     6     7 ar  
    13     6    38 1   
    14     7     8 ar  
    15     7    10 1   
    16     8     9 ar  
    17     8    39 1   
    18     9    40 1   
    19    10    11 1   
    20    10    21 1   
    21    10    41 1   
    22    11    12 1   
    23    11    15 1   
    24    12    13 1   
    25    12    42 1   
    26    12    43 1   
    27    13    14 1   
    28    13    29 1   
    29    13    44 1   
    30    14    15 1   
    31    14    45 1   
    32    14    46 1   
    33    15    16 1   
    34    15    47 1   
    35    16    17 1   
    36    16    21 1   
    37    16    48 1   
    38    17    18 1   
    39    17    33 2   
    40    18    19 1   
    41    18    22 1   
    42    19    20 2   
    43    19    21 1   
    44    21    49 1   
    45    22    23 1   
    46    22    50 1   
    47    22    51 1   
    48    23    24 ar  
    49    23    32 ar  
    50    24    25 ar  
    51    24    52 1   
    52    25    26 ar  
    53    25    53 1   
    54    26    27 1   
    55    26    31 ar  
    56    27    28 1   
    57    28    30 1   
    58    28    54 1   
    59    28    55 1   
    60    29    56 1   
    61    30    31 1   
    62    31    32 ar  
    63    32    57 1   
@<TRIPOS>SUBSTRUCTURE
     1 SHY         1 TEMP              0 ****  ****    0 ROOT
