@<TRIPOS>MOLECULE
molecule
   58    63     1     0     0
SMALL
bcc


@<TRIPOS>ATOM
      1 N1           0.0000     0.0000     0.0000 n2         1 SHY      -0.730100
      2 C3           1.3020     0.0000     0.0000 ce         1 SHY       0.523800
      3 N2           1.9900     0.0000     1.1940 nz         1 SHY      -0.741600
      4 C4           2.0440     0.0000    -1.2820 ca         1 SHY      -0.235900
      5 C9           1.3510     0.0010    -2.4910 ca         1 SHY      -0.096000
      6 C8           2.0470     0.0010    -3.6820 ca         1 SHY      -0.081500
      7 C7           3.4300     0.0000    -3.6780 ca         1 SHY      -0.014300
      8 C6           4.1230    -0.0000    -2.4810 ca         1 SHY      -0.081500
      9 C5           3.4380     0.0060    -1.2830 ca         1 SHY      -0.096000
     10 C10          4.1840     0.0010    -4.9820 c3         1 SHY       0.173800
     11 N11          5.4970    -0.6610    -4.8160 n3         1 SHY      -0.654600
     12 C12          5.2590    -2.0940    -5.1950 c3         1 SHY       0.106800
     13 C13          5.1140    -2.1190    -6.7290 c3         1 SHY       0.119100
     14 C14          5.8250    -0.8450    -7.2230 c3         1 SHY      -0.124400
     15 C15          6.3210    -0.1270    -5.9520 c3         1 SHY       0.153500
     16 C16          5.9290     1.3610    -6.0430 c3         1 SHY      -0.162700
     17 C17          6.7820     2.1730    -5.0960 c          1 SHY       0.716500
     18 N19          6.0200     2.6420    -4.1020 n          1 SHY      -0.482400
     19 C20          4.7160     2.2970    -4.1790 c          1 SHY       0.723500
     20 O21          3.8590     2.6170    -3.3820 o          1 SHY      -0.605500
     21 C22          4.5150     1.4450    -5.4110 c3         1 SHY      -0.162700
     22 C23          6.5550     3.4690    -3.0180 c3         1 SHY       0.156300
     23 C24          6.4660     4.9230    -3.4050 ca         1 SHY      -0.135300
     24 C32          5.3340     5.6520    -3.0930 ca         1 SHY      -0.109000
     25 C31          5.2480     6.9860    -3.4460 ca         1 SHY      -0.120000
     26 C30          6.2980     7.5960    -4.1120 ca         1 SHY       0.068100
     27 O29          6.4630     8.8720    -4.5650 os         1 SHY      -0.319900
     28 C28          7.5420     8.8070    -5.5180 c3         1 SHY       0.331200
     29 O20          5.7440    -3.2810    -7.2700 oh         1 SHY      -0.585800
     30 O27          8.3170     7.6790    -5.0760 os         1 SHY      -0.317900
     31 C26          7.4380     6.8610    -4.4280 ca         1 SHY       0.051100
     32 C25          7.5190     5.5260    -4.0660 ca         1 SHY      -0.091000
     33 O24          7.9720     2.3700    -5.2210 o          1 SHY      -0.564500
     34 H1N         -0.5020     0.0000    -0.8660 hn         1 SHY       0.482400
     35 H2N1         2.5670    -0.8160     1.2470 hn         1 SHY       0.473133
     36 H2N2         2.5640     0.8180     1.2490 hn         1 SHY       0.473133
     37 H9           0.2670     0.0020    -2.4950 ha         1 SHY       0.122500
     38 H8           1.5090     0.0010    -4.6220 ha         1 SHY       0.167000
     39 H6           5.2060     0.0020    -2.4840 ha         1 SHY       0.167000
     40 H5           3.9820     0.0060    -0.3470 ha         1 SHY       0.122500
     41 H10          3.6100    -0.4960    -5.7540 h1         1 SHY       0.068700
     42 H121         4.3490    -2.4530    -4.7310 h1         1 SHY       0.075700
     43 H122         6.1030    -2.7020    -4.8930 h1         1 SHY       0.075700
     44 H13          4.0660    -2.0910    -7.0040 h1         1 SHY       0.035700
     45 H141         5.1290    -0.2140    -7.7610 hc         1 SHY       0.073200
     46 H142         6.6660    -1.1080    -7.8540 hc         1 SHY       0.073200
     47 H15          7.3830    -0.2640    -5.7880 h1         1 SHY       0.118700
     48 H16          5.9530     1.7400    -7.0580 hc         1 SHY       0.114700
     49 H22          3.7800     1.8590    -6.0900 hc         1 SHY       0.108700
     50 H231         5.9790     3.2990    -2.1170 h1         1 SHY       0.074200
     51 H232         7.5900     3.2060    -2.8400 h1         1 SHY       0.074200
     52 H32          4.5200     5.1820    -2.5550 ha         1 SHY       0.142000
     53 H31          4.3600     7.5550    -3.2000 ha         1 SHY       0.148000
     54 H281         8.1350     9.7130    -5.4810 h2         1 SHY       0.076200
     55 H282         7.1570     8.6350    -6.5160 h2         1 SHY       0.076200
     56 H20          5.1130    -3.7810    -7.7610 ho         1 SHY       0.412000
     57 H25          8.4200     4.9630    -4.2760 ha         1 SHY       0.160000
     58 H23          1.3400     0.0100     1.9540 hn         1 SHY       0.473133
@<TRIPOS>BOND
     1     1     2 2
     2     1    34 1
     3     2     3 1
     4     2     4 1
     5     3    35 1
     6     3    36 1
     7     4     5 ar
     8     4     9 ar
     9     5     6 ar
    10     5    37 1
    11     6     7 ar
    12     6    38 1
    13     7     8 ar
    14     7    10 1
    15     8     9 ar
    16     8    39 1
    17     9    40 1
    18    10    11 1
    19    10    21 1
    20    10    41 1
    21    11    12 1
    22    11    15 1
    23    12    13 1
    24    12    42 1
    25    12    43 1
    26    13    14 1
    27    13    29 1
    28    13    44 1
    29    14    15 1
    30    14    45 1
    31    14    46 1
    32    15    16 1
    33    15    47 1
    34    16    17 1
    35    16    21 1
    36    16    48 1
    37    17    18 1
    38    17    33 2
    39    18    19 1
    40    18    22 1
    41    19    20 2
    42    19    21 1
    43    21    49 1
    44    22    23 1
    45    22    50 1
    46    22    51 1
    47    23    24 ar
    48    23    32 ar
    49    24    25 ar
    50    24    52 1
    51    25    26 ar
    52    25    53 1
    53    26    27 1
    54    26    31 ar
    55    27    28 1
    56    28    30 1
    57    28    54 1
    58    28    55 1
    59    29    56 1
    60    30    31 1
    61    31    32 ar
    62    32    57 1
    63    58     3 1
@<TRIPOS>SUBSTRUCTURE
     1 SHY         1 TEMP              0 ****  ****    0 ROOT
