@<TRIPOS>MOLECULE
molecule
   59    59     1     0     0
SMALL
bcc


@<TRIPOS>ATOM
      1 N4           0.0000     0.0000     0.0000 nz         1 SI1      -0.741600
      2 N5           2.0290     0.0020    -1.1280 n2         1 SI1      -0.719100
      3 C18          1.3770     0.0000     0.0000 ce         1 SI1       0.518800
      4 C14          2.1180     0.0000     1.2830 ca         1 SI1      -0.233900
      5 C13          3.5130     0.0010     1.2850 ca         1 SI1      -0.101500
      6 C12          4.1970    -0.0000     2.4830 ca         1 SI1      -0.090000
      7 C17          3.5030    -0.0010     3.6800 ca         1 SI1      -0.055300
      8 C16          2.1200    -0.0070     3.6840 ca         1 SI1      -0.090000
      9 C15          1.4240    -0.0010     2.4920 ca         1 SI1      -0.101500
     10 C11          4.2570    -0.0010     4.9850 c3         1 SI1       0.151300
     11 N3           4.5000     1.3810     5.4090 ns         1 SI1      -0.591900
     12 C10          5.1630     1.6270     6.5560 c          1 SI1       0.655100
     13 O5           5.5580     0.7040     7.2380 o          1 SI1      -0.596100
     14 C8           5.4130     3.0470     6.9920 c3         1 SI1       0.051700
     15 N2           6.1460     3.0470     8.2600 ns         1 SI1      -0.575900
     16 C7           6.0550     4.1050     9.0910 c          1 SI1       0.676100
     17 O4           5.3680     5.0570     8.7880 o          1 SI1      -0.590100
     18 C5           6.8090     4.1050    10.3950 c3         1 SI1       0.179500
     19 C6           8.3090     3.9800    10.1190 c3         1 SI1       0.114400
     20 O3           8.7160     5.0180     9.2250 oh         1 SI1      -0.599800
     21 N1           6.5480     5.3570    11.1110 n7         1 SI1      -0.890100
     22 S1           6.4510     5.3610    12.7640 s6         1 SI1       1.325900
     23 O2           6.1660     6.7210    13.0590 o          1 SI1      -0.619800
     24 O1           5.5210     4.3190    13.0290 o          1 SI1      -0.619800
     25 C1           8.1300     4.9040    13.2770 c3         1 SI1      -0.231600
     26 C4           8.2050     4.8650    14.8050 c3         1 SI1      -0.062400
     27 C3           9.6200     4.4790    15.2370 c3         1 SI1      -0.074400
     28 C2           9.6940     4.4410    16.7650 c3         1 SI1      -0.093100
     29 C9           6.2400     3.7700     5.9250 c3         1 SI1      -0.108100
     30 H41         -0.3340     0.0020    -0.9440 hn         1 SI1       0.474800
     31 H42         -0.3350     0.8160     0.4730 hn         1 SI1       0.474800
     32 H51          3.0300     0.0030    -1.1310 hn         1 SI1       0.484400
     33 H14          4.0580     0.0010     0.3490 ha         1 SI1       0.128000
     34 H17          5.2810     0.0030     2.4870 ha         1 SI1       0.168500
     35 H16          1.5810    -0.0070     4.6240 ha         1 SI1       0.168500
     36 H15          0.3410    -0.0060     2.4960 ha         1 SI1       0.128000
     37 H11          3.6720    -0.5130     5.7400 h1         1 SI1       0.075200
     38 H12          5.2040    -0.5110     4.8550 h1         1 SI1       0.075200
     39 H31          4.1470     2.1410     4.8620 hn         1 SI1       0.319500
     40 H81          4.4670     3.5580     7.1220 h1         1 SI1       0.096700
     41 H21          6.6830     2.2460     8.5280 hn         1 SI1       0.335500
     42 H52          6.4830     3.2680    11.0000 h1         1 SI1       0.095700
     43 H61          8.8570     4.0690    11.0490 h1         1 SI1       0.030700
     44 H62          8.5150     3.0160     9.6700 h1         1 SI1       0.030700
     45 H32          9.6560     5.0150     9.1470 ho         1 SI1       0.410000
     46 H13          6.4130     6.2070    10.6000 hn         1 SI1       0.482800
     47 H22          8.8350     5.6350    12.8990 h1         1 SI1       0.095700
     48 H23          8.3760     3.9270    12.8780 h1         1 SI1       0.095700
     49 H43          7.5000     4.1340    15.1820 hc         1 SI1       0.057700
     50 H44          7.9590     5.8420    15.2030 hc         1 SI1       0.057700
     51 H33          9.8660     3.5020    14.8390 hc         1 SI1       0.042200
     52 H34         10.3250     5.2100    14.8600 hc         1 SI1       0.042200
     53 H24          9.4540     5.4190    17.1630 hc         1 SI1       0.038367
     54 H25          8.9850     3.7140    17.1430 hc         1 SI1       0.038367
     55 H26         10.6950     4.1620    17.0710 hc         1 SI1       0.038367
     56 H91          6.8980     4.4870     6.4020 hc         1 SI1       0.051367
     57 H92          5.5770     4.2870     5.2430 hc         1 SI1       0.051367
     58 H93          6.8310     3.0470     5.3760 hc         1 SI1       0.051367
     59 H431        -0.3340    -0.8200     0.4660 hn         1 SI1       0.474800
@<TRIPOS>BOND
     1     1     3 1
     2     1    30 1
     3     1    31 1
     4     2     3 2
     5     2    32 1
     6     3     4 1
     7     4     5 ar
     8     4     9 ar
     9     5     6 ar
    10     5    33 1
    11     6     7 ar
    12     6    34 1
    13     7     8 ar
    14     7    10 1
    15     8     9 ar
    16     8    35 1
    17     9    36 1
    18    10    11 1
    19    10    37 1
    20    10    38 1
    21    11    12 1
    22    11    39 1
    23    12    13 2
    24    12    14 1
    25    14    15 1
    26    14    29 1
    27    14    40 1
    28    15    16 1
    29    15    41 1
    30    16    17 2
    31    16    18 1
    32    18    19 1
    33    18    21 1
    34    18    42 1
    35    19    20 1
    36    19    43 1
    37    19    44 1
    38    20    45 1
    39    21    22 1
    40    21    46 1
    41    22    23 2
    42    22    24 2
    43    22    25 1
    44    25    26 1
    45    25    47 1
    46    25    48 1
    47    26    27 1
    48    26    49 1
    49    26    50 1
    50    27    28 1
    51    27    51 1
    52    27    52 1
    53    28    53 1
    54    28    54 1
    55    28    55 1
    56    29    56 1
    57    29    57 1
    58    29    58 1
    59    59     1 1
@<TRIPOS>SUBSTRUCTURE
     1 SI1         1 TEMP              0 ****  ****    0 ROOT
