@<TRIPOS>MOLECULE
SI1
   59    59     1     0     0
SMALL
bcc


@<TRIPOS>ATOM
      1 N4           0.0000     0.0000     0.0000 nz         1 SI1       0.124400
      2 N5           2.0290     0.0020    -1.1280 n2         1 SI1      -0.452100
      3 C18          1.3770     0.0000     0.0000 ce         1 SI1       0.230800
      4 C14          2.1180     0.0000     1.2830 ca         1 SI1      -0.196900
      5 C13          3.5130     0.0010     1.2850 ca         1 SI1      -0.060000
      6 C12          4.1970    -0.0000     2.4830 ca         1 SI1      -0.064000
      7 C17          3.5030    -0.0010     3.6800 ca         1 SI1      -0.058300
      8 C16          2.1200    -0.0070     3.6840 ca         1 SI1      -0.064000
      9 C15          1.4240    -0.0010     2.4920 ca         1 SI1      -0.060000
     10 C11          4.2570    -0.0010     4.9850 c3         1 SI1       0.101300
     11 N3           4.5000     1.3810     5.4090 ns         1 SI1      -0.202900
     12 C10          5.1630     1.6270     6.5560 c          1 SI1       0.572100
     13 O5           5.5580     0.7040     7.2380 o          1 SI1      -0.635100
     14 C8           5.4130     3.0470     6.9920 c3         1 SI1      -0.045300
     15 N2           6.1460     3.0470     8.2600 ns         1 SI1      -0.183900
     16 C7           6.0550     4.1050     9.0910 c          1 SI1       0.586100
     17 O4           5.3680     5.0570     8.7880 o          1 SI1      -0.636100
     18 C5           6.8090     4.1050    10.3950 c3         1 SI1       0.124500
     19 C6           8.3090     3.9800    10.1190 c3         1 SI1       0.189400
     20 O3           8.7160     5.0180     9.2250 oh         1 SI1      -0.583800
     21 N1           6.5480     5.3570    11.1110 n7         1 SI1      -0.572100
     22 S1           6.4510     5.3610    12.7640 s6         1 SI1       0.953900
     23 O2           6.1660     6.7210    13.0590 o          1 SI1      -0.576300
     24 O1           5.5210     4.3190    13.0290 o          1 SI1      -0.576300
     25 C1           8.1300     4.9040    13.2770 c3         1 SI1      -0.024600
     26 C4           8.2050     4.8650    14.8050 c3         1 SI1       0.003600
     27 C3           9.6200     4.4790    15.2370 c3         1 SI1      -0.027400
     28 C2           9.6940     4.4410    16.7650 c3         1 SI1       0.008900
     29 C9           6.2400     3.7700     5.9250 c3         1 SI1      -0.012100
     30 H41         -0.3340    -0.8160     0.4730 hn         1 SI1       0.227800
     31 H42         -0.3340    -0.0020    -0.9440 hn         1 SI1       0.227800
     32 H51          1.5290     0.0030    -1.9950 hn         1 SI1       0.337400
     33 H14          4.0580     0.0010     0.3490 ha         1 SI1       0.108000
     34 H17          5.2810     0.0030     2.4870 ha         1 SI1       0.132000
     35 H16          1.5810    -0.0070     4.6240 ha         1 SI1       0.132000
     36 H15          0.3410    -0.0060     2.4960 ha         1 SI1       0.108000
     37 H11          5.2040    -0.5110     4.8550 h1         1 SI1       0.041700
     38 H12          3.6720    -0.5130     5.7400 h1         1 SI1       0.041700
     39 H31          4.1490     2.1420     4.8610 hn         1 SI1       0.180500
     40 H81          4.4670     3.5580     7.1220 h1         1 SI1       0.067700
     41 H21          6.7160     2.2630     8.5090 hn         1 SI1       0.197500
     42 H52          6.4830     3.2680    11.0000 h1         1 SI1       0.062700
     43 H61          8.5150     3.0160     9.6700 h1         1 SI1      -0.005300
     44 H62          8.8570     4.0690    11.0490 h1         1 SI1      -0.005300
     45 H32          9.6540     5.0050     9.1340 ho         1 SI1       0.395000
     46 H13          6.3970     6.2040    10.5990 hn         1 SI1       0.381800
     47 H22          8.8350     5.6350    12.8990 h1         1 SI1       0.068200
     48 H23          8.3760     3.9270    12.8780 h1         1 SI1       0.068200
     49 H43          7.5000     4.1340    15.1820 hc         1 SI1       0.029700
     50 H44          7.9590     5.8420    15.2030 hc         1 SI1       0.029700
     51 H33         10.3250     5.2100    14.8600 hc         1 SI1       0.011700
     52 H34          9.8660     3.5020    14.8390 hc         1 SI1       0.011700
     53 H24          9.4470     5.4170    17.1630 hc         1 SI1       0.004367
     54 H25          8.9900     3.7090    17.1420 hc         1 SI1       0.004367
     55 H26         10.6970     4.1690    17.0710 hc         1 SI1       0.004367
     56 H91          5.5760     4.2820     5.2390 hc         1 SI1       0.016033
     57 H92          6.8930     4.4910     6.4020 hc         1 SI1       0.016033
     58 H93          6.8360     3.0480     5.3800 hc         1 SI1       0.016033
     59 H431        -0.3340     0.8150     0.4750 hn         1 SI1       0.227800
@<TRIPOS>BOND
     1     1     3 1   
     2     1    30 1   
     3     1    31 1   
     4     1    59 1   
     5     2     3 2   
     6     2    32 1   
     7     3     4 1   
     8     4     5 ar  
     9     4     9 ar  
    10     5     6 ar  
    11     5    33 1   
    12     6     7 ar  
    13     6    34 1   
    14     7     8 ar  
    15     7    10 1   
    16     8     9 ar  
    17     8    35 1   
    18     9    36 1   
    19    10    11 1   
    20    10    37 1   
    21    10    38 1   
    22    11    12 1   
    23    11    39 1   
    24    12    13 2   
    25    12    14 1   
    26    14    15 1   
    27    14    29 1   
    28    14    40 1   
    29    15    16 1   
    30    15    41 1   
    31    16    17 2   
    32    16    18 1   
    33    18    19 1   
    34    18    21 1   
    35    18    42 1   
    36    19    20 1   
    37    19    43 1   
    38    19    44 1   
    39    20    45 1   
    40    21    22 1   
    41    21    46 1   
    42    22    23 2   
    43    22    24 2   
    44    22    25 1   
    45    25    26 1   
    46    25    47 1   
    47    25    48 1   
    48    26    27 1   
    49    26    49 1   
    50    26    50 1   
    51    27    28 1   
    52    27    51 1   
    53    27    52 1   
    54    28    53 1   
    55    28    54 1   
    56    28    55 1   
    57    29    56 1   
    58    29    57 1   
    59    29    58 1   
@<TRIPOS>SUBSTRUCTURE
     1 SI1         1 TEMP              0 ****  ****    0 ROOT
