@<TRIPOS>MOLECULE
molecule
   39    39     1     0     0
SMALL
bcc


@<TRIPOS>ATOM
      1 C1           1.5050     0.0000     0.0000 c          1 SI2       0.853600
      2 C2           0.0000     0.0000     0.0000 c3         1 SI2       0.249600
      3 C3          -0.5670     0.0000     1.4170 c3         1 SI2      -0.106400
      4 C4          -0.4110     1.3540     2.1010 c3         1 SI2       0.140100
      5 C5          -0.9360     2.4780     1.2010 c3         1 SI2       0.071700
      6 C6          -0.3310     2.3700    -0.2080 c3         1 SI2       0.173100
      7 C7          -0.9670     3.3610    -1.1790 c3         1 SI2       0.172100
      8 C8          -0.4150     3.2370    -2.6040 c3         1 SI2       0.131100
      9 C9          -0.9440     4.2860    -3.5790 c3         1 SI2       0.105400
     10 C11         -1.1040     5.9200     2.7720 c3         1 SI2      -0.189100
     11 N5          -0.6470     3.7630     1.7940 ns         1 SI2      -0.576900
     12 O1A          2.2080     0.8660    -0.5010 o          1 SI2      -0.828300
     13 O1B          1.9850    -1.0990     0.6310 o          1 SI2      -0.828300
     14 O2          -0.3500    -1.2510    -0.5910 oh         1 SI2      -0.577800
     15 O4          -1.1460     1.3180     3.3210 oh         1 SI2      -0.612800
     16 O6          -0.5430     1.0650    -0.7600 os         1 SI2      -0.448600
     17 O7          -2.3750     3.1410    -1.1670 oh         1 SI2      -0.585800
     18 O8           1.0070     3.3960    -2.5430 oh         1 SI2      -0.593800
     19 O9          -0.3340     4.0800    -4.8500 oh         1 SI2      -0.609800
     20 O10         -2.8400     4.4870     2.0900 o          1 SI2      -0.603100
     21 H31         -0.0470    -0.7490     2.0020 hc         1 SI2       0.069200
     22 H32         -1.6200    -0.2500     1.3730 hc         1 SI2       0.069200
     23 H4           0.6370     1.5280     2.3130 h1         1 SI2       0.043700
     24 H5          -2.0110     2.3700     1.1170 h1         1 SI2       0.107700
     25 H6           0.7340     2.5590    -0.1500 h1         1 SI2       0.099700
     26 H7          -0.7730     4.3650    -0.8220 h1         1 SI2       0.027700
     27 H8          -0.6440     2.2500    -2.9880 h1         1 SI2       0.074700
     28 H91         -2.0190     4.1880    -3.6710 h1         1 SI2       0.018700
     29 H92         -0.7000     5.2770    -3.2140 h1         1 SI2       0.018700
     30 H111        -0.4390     6.4010     2.0640 hc         1 SI2       0.054033
     31 H112        -0.5610     5.6960     3.6820 hc         1 SI2       0.054033
     32 H113        -1.9310     6.5820     2.9980 hc         1 SI2       0.054033
     33 HN5          0.3100     4.0200     1.9320 hn         1 SI2       0.311500
     34 HO2         -0.3020    -1.1800    -1.5300 ho         1 SI2       0.398000
     35 HO4         -0.5750     1.0590     4.0250 ho         1 SI2       0.394000
     36 HO7         -2.8220     3.9520    -1.3450 ho         1 SI2       0.386000
     37 HO8          1.4000     3.0120    -3.3090 ho         1 SI2       0.418000
     38 HO9         -0.7090     4.6740    -5.4790 ho         1 SI2       0.394000
     39 C10         -1.6300     4.6550     2.1810 c          1 SI2       0.671100
@<TRIPOS>BOND
     1     1     2 1
     2     1    12 1
     3     1    13 1
     4     2     3 1
     5     2    14 1
     6     2    16 1
     7     3     4 1
     8     3    21 1
     9     3    22 1
    10     4     5 1
    11     4    15 1
    12     4    23 1
    13     5     6 1
    14     5    11 1
    15     5    24 1
    16     6     7 1
    17     6    16 1
    18     6    25 1
    19     7     8 1
    20     7    17 1
    21     7    26 1
    22     8     9 1
    23     8    18 1
    24     8    27 1
    25     9    19 1
    26     9    28 1
    27     9    29 1
    28    39    10 1
    29    39    11 1
    30    39    20 2
    31    10    30 1
    32    10    31 1
    33    10    32 1
    34    11    33 1
    35    14    34 1
    36    15    35 1
    37    17    36 1
    38    18    37 1
    39    19    38 1
@<TRIPOS>SUBSTRUCTURE
     1 SI2         1 TEMP              0 ****  ****    0 ROOT
