@<TRIPOS>MOLECULE
molecule
   44    47     1     0     0
SMALL
bcc


@<TRIPOS>ATOM
      1 C1           0.0000     0.0000     0.0000 ca         1 SI5      -0.172300
      2 C2           1.3820     0.0000     0.0000 ca         1 SI5      -0.077000
      3 C3           2.0750     0.0000     1.1950 ca         1 SI5      -0.171000
      4 C4           1.3850     0.0000     2.3960 ca         1 SI5       0.190900
      5 C5           0.0000     0.0000     2.3980 ca         1 SI5      -0.190000
      6 C6          -0.6920     0.0000     1.2000 ca         1 SI5       0.172900
      7 F1          -2.0430     0.0010     1.2000 f          1 SI5      -0.125900
      8 C7          -1.6240     1.2680    -1.3480 c3         1 SI5       0.157400
      9 O1          -2.4350     1.2410    -2.5250 os         1 SI5      -0.402600
     10 C8          -3.3330     0.1300    -2.5900 c3         1 SI5       0.231400
     11 C9          -2.5310    -1.1740    -2.5950 c3         1 SI5      -0.115400
     12 C10         -4.1530     0.2220    -3.8510 cc         1 SI5      -0.332600
     13 F2           2.0630    -0.0010     3.5650 f          1 SI5      -0.107900
     14 C11         -0.7540     0.0060    -1.3040 c3         1 SI5       0.192500
     15 C12         -1.6510    -1.2250    -1.3420 c3         1 SI5      -0.119700
     16 C13         -0.7860    -2.4900    -1.3790 c3         1 SI5       0.013700
     17 S1           0.0150    -2.5750    -3.0030 ss         1 SI5      -0.205300
     18 C14          0.6190    -0.9280    -3.1180 c2         1 SI5       0.472100
     19 N1           0.2080     0.0260    -2.3830 n2         1 SI5      -0.565900
     20 N2           1.5820    -0.6550    -4.0630 nz         1 SI5      -0.736600
     21 C15         -3.6860     0.6170    -5.1090 cc         1 SI5       0.350200
     22 N3          -4.6880     0.5690    -5.9500 nd         1 SI5      -0.498800
     23 N4          -5.8250     0.1410    -5.2520 na         1 SI5       0.080400
     24 C16         -5.4690    -0.0700    -3.9680 cd         1 SI5      -0.084300
     25 C17         -7.1620    -0.0510    -5.8190 c3         1 SI5       0.058600
     26 H1           1.9230     0.0200    -0.9390 ha         1 SI5       0.127000
     27 H2           3.1580    -0.0110     1.1920 ha         1 SI5       0.164000
     28 H3          -0.5400     0.0540     3.3360 ha         1 SI5       0.182000
     29 H4          -2.2600     1.2980    -0.4720 h1         1 SI5       0.086200
     30 H5          -0.9870     2.1440    -1.3700 h1         1 SI5       0.086200
     31 H6          -3.9880     0.1470    -1.7270 h1         1 SI5       0.051700
     32 H7          -3.2120    -2.0160    -2.5920 hc         1 SI5       0.067700
     33 H8          -1.9050    -1.2100    -3.4780 hc         1 SI5       0.067700
     34 H9          -2.2790    -1.2430    -0.4600 hc         1 SI5       0.116700
     35 H10         -1.4110    -3.3630    -1.2340 h1         1 SI5       0.108200
     36 H11         -0.0320    -2.4390    -0.6030 h1         1 SI5       0.108200
     37 H12          1.6320     0.3330    -4.2130 hn         1 SI5       0.470133
     38 H13          1.3460    -1.1120    -4.9210 hn         1 SI5       0.470133
     39 H14         -2.6710     0.9110    -5.3470 h4         1 SI5       0.042100
     40 H15         -6.1220    -0.4070    -3.1720 h4         1 SI5       0.176000
     41 H16         -7.8490     0.6560    -5.3700 h1         1 SI5       0.064033
     42 H17         -7.1260     0.1090    -6.8900 h1         1 SI5       0.064033
     43 H18         -7.4980    -1.0600    -5.6150 h1         1 SI5       0.064033
     44 H23          2.4710    -0.9780    -3.7360 hn         1 SI5       0.470133
@<TRIPOS>BOND
     1    25    23 1
     2    23    24 1
     3    23    22 1
     4    24    12 2
     5    22    21 2
     6    12    21 1
     7    12    10 1
     8    10    11 1
     9    10     9 1
    10    11    15 1
    11    15    16 1
    12    15    14 1
    13    16    17 1
    14     9     8 1
    15     7     6 1
    16    17    18 1
    17     8    14 1
    18    14     1 1
    19    14    19 1
    20     6     1 ar
    21     6     5 ar
    22    18    19 2
    23    18    20 1
    24     1     2 ar
    25     5     4 ar
    26     2     3 ar
    27     4     3 ar
    28     4    13 1
    29     2    26 1
    30     3    27 1
    31     5    28 1
    32     8    29 1
    33     8    30 1
    34    10    31 1
    35    11    32 1
    36    11    33 1
    37    15    34 1
    38    16    35 1
    39    16    36 1
    40    20    37 1
    41    20    38 1
    42    21    39 1
    43    24    40 1
    44    25    41 1
    45    25    42 1
    46    25    43 1
    47    44    20 1
@<TRIPOS>SUBSTRUCTURE
     1 SI5         1 TEMP              0 ****  ****    0 ROOT
