@<TRIPOS>MOLECULE
SI5
   44    47     1     0     0
SMALL
bcc


@<TRIPOS>ATOM
      1 C1           0.0000     0.0000     0.0000 ca         1 SI5      -0.175300
      2 C2           1.3820     0.0000     0.0000 ca         1 SI5      -0.058000
      3 C3           2.0750     0.0000     1.1950 ca         1 SI5      -0.126000
      4 C4           1.3850     0.0000     2.3960 ca         1 SI5       0.169900
      5 C5           0.0000     0.0000     2.3980 ca         1 SI5      -0.143000
      6 C6          -0.6920     0.0000     1.2000 ca         1 SI5       0.153900
      7 F1          -2.0430     0.0010     1.2000 f          1 SI5      -0.112900
      8 C7          -1.6240     1.2680    -1.3480 c3         1 SI5       0.214400
      9 O1          -2.4350     1.2410    -2.5250 os         1 SI5      -0.391600
     10 C8          -3.3330     0.1300    -2.5900 c3         1 SI5       0.292400
     11 C9          -2.5310    -1.1740    -2.5950 c3         1 SI5      -0.088400
     12 C10         -4.1530     0.2220    -3.8510 cc         1 SI5      -0.359600
     13 F2           2.0630    -0.0010     3.5650 f          1 SI5      -0.103900
     14 C11         -0.7540     0.0060    -1.3040 c3         1 SI5       0.137500
     15 C12         -1.6510    -1.2250    -1.3420 c3         1 SI5      -0.098700
     16 C13         -0.7860    -2.4900    -1.3790 c3         1 SI5       0.107700
     17 S1           0.0150    -2.5750    -3.0030 ss         1 SI5      -0.248300
     18 C14          0.6190    -0.9280    -3.1180 c2         1 SI5       0.162100
     19 N1           0.2080     0.0260    -2.3830 n2         1 SI5      -0.344900
     20 N2           1.5820    -0.6550    -4.0630 nz         1 SI5       0.194400
     21 C15         -3.6860     0.6170    -5.1090 cc         1 SI5       0.410200
     22 N3          -4.6880     0.5690    -5.9500 nd         1 SI5      -0.637800
     23 N4          -5.8250     0.1410    -5.2520 na         1 SI5       0.512400
     24 C16         -5.4690    -0.0700    -3.9680 cd         1 SI5      -0.221300
     25 C17         -7.1620    -0.0510    -5.8190 c3         1 SI5       0.017600
     26 H1           1.9230     0.0200    -0.9390 ha         1 SI5       0.095000
     27 H2           3.1580    -0.0110     1.1920 ha         1 SI5       0.135000
     28 H3          -0.5400     0.0540     3.3360 ha         1 SI5       0.153000
     29 H4          -2.2600     1.2980    -0.4720 h1         1 SI5       0.044700
     30 H5          -0.9870     2.1440    -1.3700 h1         1 SI5       0.044700
     31 H6          -3.9880     0.1470    -1.7270 h1         1 SI5       0.020700
     32 H7          -3.2120    -2.0160    -2.5920 hc         1 SI5       0.046700
     33 H8          -1.9050    -1.2100    -3.4780 hc         1 SI5       0.046700
     34 H9          -2.2790    -1.2430    -0.4600 hc         1 SI5       0.092700
     35 H10         -1.4110    -3.3630    -1.2340 h1         1 SI5       0.078700
     36 H11         -0.0320    -2.4390    -0.6030 h1         1 SI5       0.078700
     37 H12          1.6320     0.3330    -4.2130 hn         1 SI5       0.221133
     38 H13          1.3460    -1.1120    -4.9210 hn         1 SI5       0.221133
     39 H14         -2.6710     0.9110    -5.3470 h4         1 SI5      -0.003900
     40 H15         -6.1220    -0.4070    -3.1720 h4         1 SI5       0.150000
     41 H16         -7.8490     0.6560    -5.3700 h1         1 SI5       0.029367
     42 H17         -7.1260     0.1090    -6.8900 h1         1 SI5       0.029367
     43 H18         -7.4980    -1.0600    -5.6150 h1         1 SI5       0.029367
     44 H23          2.4710    -0.9780    -3.7360 hn         1 SI5       0.221133
@<TRIPOS>BOND
     1     1     2 ar  
     2     1     6 ar  
     3     1    14 1   
     4     2     3 ar  
     5     2    26 1   
     6     3     4 ar  
     7     3    27 1   
     8     4     5 ar  
     9     4    13 1   
    10     5     6 ar  
    11     5    28 1   
    12     6     7 1   
    13     8     9 1   
    14     8    14 1   
    15     8    29 1   
    16     8    30 1   
    17     9    10 1   
    18    10    11 1   
    19    10    12 1   
    20    10    31 1   
    21    11    15 1   
    22    11    32 1   
    23    11    33 1   
    24    12    21 1   
    25    12    24 2   
    26    14    15 1   
    27    14    19 1   
    28    15    16 1   
    29    15    34 1   
    30    16    17 1   
    31    16    35 1   
    32    16    36 1   
    33    17    18 1   
    34    18    19 2   
    35    18    20 1   
    36    20    37 1   
    37    20    38 1   
    38    20    44 1   
    39    21    22 2   
    40    21    39 1   
    41    22    23 1   
    42    23    24 1   
    43    23    25 1   
    44    24    40 1   
    45    25    41 1   
    46    25    42 1   
    47    25    43 1   
@<TRIPOS>SUBSTRUCTURE
     1 SI5         1 TEMP              0 ****  ****    0 ROOT
