@<TRIPOS>MOLECULE
SI6
   41    44     1     0     0
SMALL
bcc


@<TRIPOS>ATOM
      1 C1           0.0000     0.0000     0.0000 ca         1 SI6      -0.126000
      2 C2           1.3830     0.0000     0.0000 ca         1 SI6      -0.057000
      3 C3           2.0730     0.0000     1.1960 ca         1 SI6      -0.175300
      4 C4           1.3830    -0.0020     2.3970 ca         1 SI6       0.152900
      5 C5          -0.0010    -0.0010     2.3980 ca         1 SI6      -0.143000
      6 C6          -0.6930    -0.0010     1.1980 ca         1 SI6       0.169900
      7 F1          -2.0440    -0.0000     1.1980 f          1 SI6      -0.103900
      8 F2           2.0590    -0.0020     3.5660 f          1 SI6      -0.111900
      9 C7           3.5810    -0.0010     1.1950 c3         1 SI6       0.137500
     10 C8           4.0590    -1.2610     1.9220 c3         1 SI6       0.214400
     11 O1           5.4840    -1.2280     2.0350 os         1 SI6      -0.391600
     12 C9           5.9850    -0.1180     2.7830 c3         1 SI6       0.292400
     13 C10          5.5820     1.1860     2.0910 c3         1 SI6      -0.088400
     14 C11          4.0580     1.2320     1.9560 c3         1 SI6      -0.097700
     15 C12          3.6530     2.4960     1.1920 c3         1 SI6       0.106700
     16 S1           4.6560     2.5900    -0.3150 ss         1 SI6      -0.246300
     17 C13          4.4580     0.9430    -0.9000 c2         1 SI6       0.162100
     18 N1           4.0320    -0.0140    -0.1780 n2         1 SI6      -0.345900
     19 N2           4.8070     0.6660    -2.2020 nz         1 SI6       0.193400
     20 C14          7.4880    -0.2040     2.8610 cc         1 SI6      -0.358600
     21 C15          8.2460     0.0830     3.9460 cd         1 SI6      -0.234300
     22 N3           9.5370    -0.1170     3.6080 na         1 SI6       0.478400
     23 N4           9.5740    -0.5400     2.2730 nd         1 SI6      -0.649800
     24 C16          8.3440    -0.5970     1.8290 cc         1 SI6       0.415200
     25 H1          -0.5410     0.0000    -0.9380 ha         1 SI6       0.135000
     26 H2           1.9240     0.0010    -0.9380 ha         1 SI6       0.095000
     27 H3          -0.5430    -0.0020     3.3360 ha         1 SI6       0.153000
     28 H4           3.7630    -2.1370     1.3580 h1         1 SI6       0.044700
     29 H5           3.6200    -1.2960     2.9120 h1         1 SI6       0.044700
     30 H6           5.5650    -0.1400     3.7820 h1         1 SI6       0.021700
     31 H7           5.9170     2.0280     2.6850 hc         1 SI6       0.046700
     32 H8           6.0340     1.2280     1.1070 hc         1 SI6       0.046700
     33 H9           3.6080     1.2450     2.9410 hc         1 SI6       0.093700
     34 H10          2.6030     2.4420     0.9280 h1         1 SI6       0.078700
     35 H11          3.8360     3.3680     1.8070 h1         1 SI6       0.078700
     36 H12          5.6560     1.1450    -2.4290 hn         1 SI6       0.221467
     37 H13          4.0780     0.9710    -2.8160 hn         1 SI6       0.221467
     38 H14          7.8820     0.4140     4.9110 h4         1 SI6       0.150000
     39 H15         10.3290     0.0160     4.2050 hn         1 SI6       0.156700
     40 H16          8.0420    -0.8920     0.8310 h4         1 SI6      -0.003900
     41 H23          4.9320    -0.3210    -2.3110 hn         1 SI6       0.221467
@<TRIPOS>BOND
     1     1     2 ar  
     2     1     6 ar  
     3     1    25 1   
     4     2     3 ar  
     5     2    26 1   
     6     3     4 ar  
     7     3     9 1   
     8     4     5 ar  
     9     4     8 1   
    10     5     6 ar  
    11     5    27 1   
    12     6     7 1   
    13     9    10 1   
    14     9    14 1   
    15     9    18 1   
    16    10    11 1   
    17    10    28 1   
    18    10    29 1   
    19    11    12 1   
    20    12    13 1   
    21    12    20 1   
    22    12    30 1   
    23    13    14 1   
    24    13    31 1   
    25    13    32 1   
    26    14    15 1   
    27    14    33 1   
    28    15    16 1   
    29    15    34 1   
    30    15    35 1   
    31    16    17 1   
    32    17    18 2   
    33    17    19 1   
    34    19    36 1   
    35    19    37 1   
    36    19    41 1   
    37    20    21 2   
    38    20    24 1   
    39    21    22 1   
    40    21    38 1   
    41    22    23 1   
    42    22    39 1   
    43    23    24 2   
    44    24    40 1   
@<TRIPOS>SUBSTRUCTURE
     1 SI6         1 TEMP              0 ****  ****    0 ROOT
