@<TRIPOS>MOLECULE
SIA
   39    39     1     0     0
SMALL
bcc


@<TRIPOS>ATOM
      1 C1           1.5060     0.0000     0.0000 c          1 SIA       0.912600
      2 C2           0.0000     0.0000     0.0000 c3         1 SIA       0.269600
      3 C3          -0.5080     0.0000     1.4440 c3         1 SIA      -0.080400
      4 C4           0.0340     1.2400     2.1640 c3         1 SIA       0.167100
      5 C5          -0.3300     2.4820     1.3430 c3         1 SIA      -0.031300
      6 C6           0.1630     2.2960    -0.0910 c3         1 SIA       0.115100
      7 C7          -0.1690     3.5430    -0.9110 c3         1 SIA       0.190100
      8 C8           0.3320     3.3610    -2.3450 c3         1 SIA       0.162100
      9 C9           0.0000     4.6100    -3.1650 c3         1 SIA       0.176400
     10 C11          0.3190     5.5910     3.4790 c3         1 SIA      -0.071100
     11 N5           0.3070     3.6620     1.9320 ns         1 SIA      -0.174900
     12 O1A          2.1100     0.6270    -0.8380 o          1 SIA      -0.866800
     13 O1B          2.1780    -0.6950     0.9310 o          1 SIA      -0.866800
     14 O2          -0.4750    -1.1700    -0.6700 oh         1 SIA      -0.596800
     15 O4          -0.5500     1.3350     3.4660 oh         1 SIA      -0.588800
     16 O6          -0.4730     1.1610    -0.6780 os         1 SIA      -0.370600
     17 O7          -1.5840     3.7430    -0.9240 oh         1 SIA      -0.569800
     18 O8           1.7470     3.1610    -2.3330 oh         1 SIA      -0.562800
     19 O9           0.4690     4.4390    -4.5040 oh         1 SIA      -0.593800
     20 O10         -1.4430     4.0390     3.2410 o          1 SIA      -0.643100
     21 H31         -0.1600    -0.8930     1.9500 hc         1 SIA       0.032200
     22 H32         -1.5910     0.0260     1.4460 hc         1 SIA       0.032200
     23 H4           1.1120     1.1670     2.2490 h1         1 SIA       0.044700
     24 H5          -1.4060     2.6090     1.3410 h1         1 SIA       0.080700
     25 H6           1.2350     2.1400    -0.0840 h1         1 SIA       0.114700
     26 H7           0.3130     4.4060    -0.4670 h1         1 SIA      -0.004300
     27 H8          -0.1500     2.4990    -2.7900 h1         1 SIA       0.046700
     28 H91          0.4830     5.4720    -2.7210 h1         1 SIA      -0.013300
     29 H92         -1.0720     4.7610    -3.1750 h1         1 SIA      -0.013300
     30 H111         1.3380     5.3490     3.7570 hc         1 SIA       0.013367
     31 H112         0.3240     6.3960     2.7530 hc         1 SIA       0.013367
     32 H113        -0.2320     5.9010     4.3590 hc         1 SIA       0.013367
     33 HN5          1.2350     3.9170     1.6590 hn         1 SIA       0.170500
     34 HO2          0.2540    -1.7330    -0.8740 ho         1 SIA       0.406000
     35 HO4         -0.1740     0.6780     4.0270 ho         1 SIA       0.380000
     36 HO7         -1.7750     4.6510    -0.7560 ho         1 SIA       0.370000
     37 HO8          2.0290     2.8600    -3.1810 ho         1 SIA       0.400000
     38 HO9          0.2090     5.1810    -5.0250 ho         1 SIA       0.378000
     39 C10         -0.3380     4.3770     2.8740 c          1 SIA       0.560100
@<TRIPOS>BOND
     1     1     2 1   
     2     1    12 1   
     3     1    13 1   
     4     2     3 1   
     5     2    14 1   
     6     2    16 1   
     7     3     4 1   
     8     3    21 1   
     9     3    22 1   
    10     4     5 1   
    11     4    15 1   
    12     4    23 1   
    13     5     6 1   
    14     5    11 1   
    15     5    24 1   
    16     6     7 1   
    17     6    16 1   
    18     6    25 1   
    19     7     8 1   
    20     7    17 1   
    21     7    26 1   
    22     8     9 1   
    23     8    18 1   
    24     8    27 1   
    25     9    19 1   
    26     9    28 1   
    27     9    29 1   
    28    10    30 1   
    29    10    31 1   
    30    10    32 1   
    31    10    39 1   
    32    11    33 1   
    33    11    39 1   
    34    14    34 1   
    35    15    35 1   
    36    17    36 1   
    37    18    37 1   
    38    19    38 1   
    39    20    39 2   
@<TRIPOS>SUBSTRUCTURE
     1 SIA         1 TEMP              0 ****  ****    0 ROOT
