@<TRIPOS>MOLECULE
SID
   47    47     1     0     0
SMALL
bcc


@<TRIPOS>ATOM
      1 C1           1.5070     0.0000     0.0000 c          1 SID       0.969600
      2 O1           2.1110    -0.0720     1.0430 o          1 SID      -0.867300
      3 C2           0.0000     0.0000     0.0000 c3         1 SID       0.271600
      4 O2          -0.4770     0.0000     1.3480 os         1 SID      -0.366600
      5 C3          -0.5120     1.2490    -0.7220 c3         1 SID      -0.098400
      6 O3           2.1780     0.0870    -1.1600 o          1 SID      -0.867300
      7 C4          -0.0480     1.2110    -2.1810 c3         1 SID       0.124100
      8 O4          -0.5810     2.3360    -2.8820 oh         1 SID      -0.586800
      9 C5          -0.5470    -0.0830    -2.8320 c3         1 SID      -0.009300
     10 N5          -0.0470    -0.1640    -4.2050 ns         1 SID      -0.169900
     11 C6          -0.0350    -1.2800    -2.0280 c3         1 SID       0.139100
     12 O6          -0.4770    -1.1670    -0.6730 os         1 SID      -0.421600
     13 C7          -0.5800    -2.5730    -2.6360 c3         1 SID       0.185100
     14 O7          -2.0050    -2.5040    -2.7070 oh         1 SID      -0.571800
     15 C8          -0.1710    -3.7600    -1.7610 c3         1 SID       0.183100
     16 O8           1.2540    -3.8310    -1.6910 oh         1 SID      -0.568800
     17 C9          -0.7160    -5.0540    -2.3700 c3         1 SID       0.042700
     18 S9          -0.3590    -6.4400    -1.2600 ss         1 SID      -0.327700
     19 C10         -0.7170     0.4430    -5.2050 c          1 SID       0.558100
     20 O10         -1.7340     1.0600    -4.9660 o          1 SID      -0.644100
     21 C11         -0.2020     0.3580    -6.6180 c3         1 SID      -0.072100
     22 CA9         -1.0560    -7.7230    -2.1550 c          1 SID       0.626700
     23 OA9         -1.5880    -7.5000    -3.2220 o          1 SID      -0.572100
     24 CM2         -1.8960    -0.1200     1.4630 c3         1 SID       0.222700
     25 CM9         -1.0080    -9.1300    -1.6160 c3         1 SID      -0.071100
     26 H3          -0.1140     2.1340    -0.2400 hc         1 SID       0.022200
     27 H3A         -1.5950     1.2670    -0.6880 hc         1 SID       0.022200
     28 H4           1.0350     1.2370    -2.2160 h1         1 SID       0.100700
     29 HO4         -0.0630     3.1000    -2.6920 ho         1 SID       0.373000
     30 H5          -1.6300    -0.0880    -2.8350 h1         1 SID       0.067700
     31 HN5          0.7950    -0.6690    -4.4020 hn         1 SID       0.171500
     32 H6           1.0480    -1.2920    -2.0520 h1         1 SID       0.119700
     33 H7          -0.1750    -2.7030    -3.6330 h1         1 SID       0.002700
     34 HO7         -2.2960    -2.8370    -3.5400 ho         1 SID       0.376000
     35 H8          -0.5760    -3.6310    -0.7650 h1         1 SID       0.049700
     36 HO8          1.5070    -4.3670    -0.9570 ho         1 SID       0.401000
     37 H9          -1.7870    -4.9660    -2.5050 h1         1 SID       0.056200
     38 H9A         -0.2440    -5.2290    -3.3290 h1         1 SID       0.056200
     39 H11         -0.2570    -0.6680    -6.9620 hc         1 SID       0.012367
     40 H11A        -0.8050     0.9880    -7.2610 hc         1 SID       0.012367
     41 H11B         0.8280     0.6940    -6.6480 hc         1 SID       0.012367
     42 HM2         -2.2640    -0.7970     0.7020 h1         1 SID      -0.016300
     43 HM2A        -2.3520     0.8540     1.3310 h1         1 SID      -0.016300
     44 HM2B        -2.1480    -0.5060     2.4430 h1         1 SID      -0.016300
     45 HM9         -0.0070    -9.5270    -1.7310 hc         1 SID       0.027700
     46 HM9A        -1.2760    -9.1230    -0.5660 hc         1 SID       0.027700
     47 HM9B        -1.7080    -9.7500    -2.1630 hc         1 SID       0.027700
@<TRIPOS>BOND
     1     1     2 1   
     2     1     3 1   
     3     1     6 1   
     4     3     4 1   
     5     3     5 1   
     6     3    12 1   
     7     4    24 1   
     8     5     7 1   
     9     5    26 1   
    10     5    27 1   
    11     7     8 1   
    12     7     9 1   
    13     7    28 1   
    14     8    29 1   
    15     9    10 1   
    16     9    11 1   
    17     9    30 1   
    18    10    19 1   
    19    10    31 1   
    20    11    12 1   
    21    11    13 1   
    22    11    32 1   
    23    13    14 1   
    24    13    15 1   
    25    13    33 1   
    26    14    34 1   
    27    15    16 1   
    28    15    17 1   
    29    15    35 1   
    30    16    36 1   
    31    17    18 1   
    32    17    37 1   
    33    17    38 1   
    34    18    22 1   
    35    19    20 2   
    36    19    21 1   
    37    21    39 1   
    38    21    40 1   
    39    21    41 1   
    40    22    23 2   
    41    22    25 1   
    42    24    42 1   
    43    24    43 1   
    44    24    44 1   
    45    25    45 1   
    46    25    46 1   
    47    25    47 1   
@<TRIPOS>SUBSTRUCTURE
     1 SID         1 TEMP              0 ****  ****    0 ROOT
