@<TRIPOS>MOLECULE
SIE
   70    72     1     0     0
SMALL
bcc


@<TRIPOS>ATOM
      1 CS1          0.0000     0.0000     0.0000 ca         1 SIE      -0.003800
      2 CS2          1.3930     0.0000     0.0000 ca         1 SIE      -0.051500
      3 CS3          2.0880     0.0000     1.2100 ca         1 SIE      -0.095000
      4 CS4          1.3880     0.0000     2.4160 ca         1 SIE       0.122100
      5 CS5         -0.0070     0.0010     2.4120 ca         1 SIE      -0.095000
      6 CS6         -0.7020     0.0000     1.2030 ca         1 SIE      -0.051500
      7 OS7          2.0660     0.0010     3.5960 os         1 SIE      -0.352800
      8 SS7          2.5160     1.3690     4.3800 s6         1 SIE       1.105400
      9 OS8          1.3180     2.0560     4.8270 o          1 SIE      -0.463800
     10 OS9          3.5070     2.0550     3.5700 o          1 SIE      -0.463800
     11 NS0          3.3180     0.7740     5.7760 nz         1 SIE      -0.081500
     12 NI1         -1.0950     1.1370    -1.9070 na         1 SIE       0.452600
     13 CI2         -0.7200     0.0000    -1.2540 cc         1 SIE      -0.192300
     14 CI3         -1.1500    -1.0710    -2.0020 cd         1 SIE      -0.119200
     15 CI4         -2.4490    -1.1470    -4.2630 ca         1 SIE       0.015000
     16 CI5         -3.0120    -0.3220    -5.2440 ca         1 SIE      -0.146000
     17 CI6         -2.9470     1.0650    -5.1310 ca         1 SIE       0.131100
     18 CI7         -2.3200     1.6710    -4.0400 ca         1 SIE      -0.085000
     19 CI8         -1.7620     0.8350    -3.0670 ca         1 SIE      -0.217200
     20 CI9         -1.8110    -0.5590    -3.1530 ca         1 SIE      -0.084800
     21 CP2          0.4950     3.0720    -1.9430 c3         1 SIE      -0.041400
     22 CP3          0.7260     4.5180    -1.4970 c3         1 SIE      -0.015400
     23 CP4          2.0640     5.0520    -2.0140 c3         1 SIE      -0.019400
     24 CP5          2.3070     6.4870    -1.5410 c3         1 SIE      -0.022400
     25 CP6          3.6250     7.0830    -2.0470 c3         1 SIE      -0.020400
     26 CP7          3.8750     8.5110    -1.5530 c3         1 SIE      -0.020400
     27 CP8          5.1930     9.1060    -2.0590 c3         1 SIE      -0.024400
     28 CP9          5.4820    10.5030    -1.5090 c3         1 SIE      -0.022400
     29 CP0          6.7950    11.0510    -2.0500 c3         1 SIE       0.009900
     30 O27         -2.3710     1.2050    -8.2440 o          1 SIE      -0.466300
     31 O28         -1.6500     3.2760    -6.9930 o          1 SIE      -0.466300
     32 O29         -3.5060     1.8450    -6.1010 os         1 SIE      -0.348800
     33 N20         -3.8660     3.2810    -8.2730 nz         1 SIE      -0.085500
     34 HS2          1.9360    -0.0000    -0.9380 ha         1 SIE       0.130500
     35 HS3          3.1720    -0.0000     1.2120 ha         1 SIE       0.127000
     36 HS5         -0.5510     0.0010     3.3490 ha         1 SIE       0.127000
     37 HS6         -1.7850     0.0000     1.1990 ha         1 SIE       0.130500
     38 HS01         3.6370     1.5440     6.3310 hn         1 SIE       0.312133
     39 HS02         2.6840     0.2170     6.3130 hn         1 SIE       0.312133
     40 HI3         -1.0870    -2.1140    -1.7160 ha         1 SIE       0.144000
     41 HI4         -2.5030    -2.2250    -4.3570 ha         1 SIE       0.123000
     42 HI5         -3.5040    -0.7680    -6.1000 ha         1 SIE       0.127000
     43 HI7         -2.2690     2.7490    -3.9500 ha         1 SIE       0.125000
     44 HP11        -1.6360     3.1360    -1.7790 h1         1 SIE       0.037700
     45 HP12        -0.8200     2.4920    -0.3600 h1         1 SIE       0.037700
     46 HP21         1.3050     2.4590    -1.5670 hc         1 SIE       0.020700
     47 HP22         0.5030     3.0370    -3.0250 hc         1 SIE       0.020700
     48 HP31         0.7220     4.5600    -0.4140 hc         1 SIE       0.014200
     49 HP32        -0.0760     5.1390    -1.8790 hc         1 SIE       0.014200
     50 HP41         2.8630     4.4190    -1.6500 hc         1 SIE       0.014200
     51 HP42         2.0590     5.0320    -3.0970 hc         1 SIE       0.014200
     52 HP51         2.3150     6.4980    -0.4580 hc         1 SIE       0.011200
     53 HP52         1.4900     7.1090    -1.8880 hc         1 SIE       0.011200
     54 HP61         4.4410     6.4530    -1.7140 hc         1 SIE       0.011200
     55 HP62         3.6100     7.0880    -3.1300 hc         1 SIE       0.011200
     56 HP71         3.8900     8.5050    -0.4690 hc         1 SIE       0.010200
     57 HP72         3.0590     9.1410    -1.8860 hc         1 SIE       0.010200
     58 HP81         5.1550     9.1600    -3.1400 hc         1 SIE       0.011700
     59 HP82         6.0030     8.4460    -1.7730 hc         1 SIE       0.011700
     60 HP91         5.5380    10.4540    -0.4280 hc         1 SIE       0.010200
     61 HP92         4.6770    11.1690    -1.7920 hc         1 SIE       0.010200
     62 HP01         6.7420    11.1130    -3.1300 hc         1 SIE       0.003700
     63 HP02         7.6060    10.3910    -1.7660 hc         1 SIE       0.003700
     64 HP03         6.9710    12.0380    -1.6400 hc         1 SIE       0.003700
     65 H201        -4.1780     4.0360    -7.6950 hn         1 SIE       0.310133
     66 H202        -4.6430     2.6940    -8.5040 hn         1 SIE       0.310133
     67 HS03         4.0920     0.2030     5.4990 hn         1 SIE       0.312133
     68 H203        -3.4620     3.6470    -9.1120 hn         1 SIE       0.310133
     69 CP1         -0.8310     2.4940    -1.4430 c3         1 SIE      -0.066700
     70 S27         -2.6900     2.3610    -7.4250 s6         1 SIE       1.092400
@<TRIPOS>BOND
     1     1     2 ar  
     2     1     6 ar  
     3     1    13 1   
     4     2     3 ar  
     5     2    34 1   
     6     3     4 ar  
     7     3    35 1   
     8     4     5 ar  
     9     4     7 1   
    10     5     6 ar  
    11     5    36 1   
    12     6    37 1   
    13     7     8 1   
    14     8     9 2   
    15     8    10 2   
    16     8    11 1   
    17    11    38 1   
    18    11    39 1   
    19    11    67 1   
    20    12    13 1   
    21    12    19 1   
    22    12    69 1   
    23    13    14 2   
    24    14    20 1   
    25    14    40 1   
    26    15    16 ar  
    27    15    20 ar  
    28    15    41 1   
    29    16    17 ar  
    30    16    42 1   
    31    17    18 ar  
    32    17    32 1   
    33    18    19 ar  
    34    18    43 1   
    35    19    20 ar  
    36    21    22 1   
    37    21    46 1   
    38    21    47 1   
    39    21    69 1   
    40    22    23 1   
    41    22    48 1   
    42    22    49 1   
    43    23    24 1   
    44    23    50 1   
    45    23    51 1   
    46    24    25 1   
    47    24    52 1   
    48    24    53 1   
    49    25    26 1   
    50    25    54 1   
    51    25    55 1   
    52    26    27 1   
    53    26    56 1   
    54    26    57 1   
    55    27    28 1   
    56    27    58 1   
    57    27    59 1   
    58    28    29 1   
    59    28    60 1   
    60    28    61 1   
    61    29    62 1   
    62    29    63 1   
    63    29    64 1   
    64    30    70 2   
    65    31    70 2   
    66    32    70 1   
    67    33    65 1   
    68    33    66 1   
    69    33    68 1   
    70    33    70 1   
    71    44    69 1   
    72    45    69 1   
@<TRIPOS>SUBSTRUCTURE
     1 SIE         1 TEMP              0 ****  ****    0 ROOT
