@<TRIPOS>MOLECULE
molecule
   24    23     1     0     0
SMALL
bcc


@<TRIPOS>ATOM
      1 C1           0.0000     0.0000     0.0000 c          1 SIF       0.893600
      2 O1           1.2070     0.0000     0.0000 o          1 SIF      -0.865300
      3 O2          -0.6700     0.0000     1.1620 o          1 SIF      -0.865300
      4 C2          -0.7530    -0.0010    -1.3060 c3         1 SIF      -0.147400
      5 C3           0.2340     0.1580    -2.4640 c3         1 SIF      -0.281700
      6 Si          -0.6700    -0.0400    -4.0810 Si         1 SIF       0.534000
      7 C4           0.8630     1.5260    -2.4040 c          1 SIF       0.917600
      8 O3           1.8820     1.6950    -1.7780 o          1 SIF      -0.856800
      9 O4           0.2900     2.5550    -3.0450 o          1 SIF      -0.856800
     10 C5           0.4850     0.3500    -5.4890 c3         1 SIF      -0.271100
     11 C6          -2.1210     1.1260    -4.1270 c3         1 SIF      -0.271100
     12 C7          -1.2760    -1.7940    -4.2420 c3         1 SIF      -0.271100
     13 H21         -1.4580     0.8210    -1.3170 hc         1 SIF       0.012200
     14 H22         -1.2880    -0.9370    -1.4130 hc         1 SIF       0.012200
     15 H3           1.0060    -0.5980    -2.3870 hc         1 SIF       0.049700
     16 H51          0.0550    -0.0050    -6.4170 hc         1 SIF       0.029922
     17 H52          0.6340     1.4210    -5.5470 hc         1 SIF       0.029922
     18 H53          1.4370    -0.1390    -5.3210 hc         1 SIF       0.029922
     19 H61         -2.8010     0.8890    -3.3170 hc         1 SIF       0.029922
     20 H62         -1.7690     2.1450    -4.0160 hc         1 SIF       0.029922
     21 H63         -2.6370     1.0230    -5.0730 hc         1 SIF       0.029922
     22 H71         -2.1140    -1.9500    -3.5740 hc         1 SIF       0.029922
     23 H72         -0.4770    -2.4780    -3.9850 hc         1 SIF       0.029922
     24 H73         -1.5910    -1.9750    -5.2630 hc         1 SIF       0.029922
@<TRIPOS>BOND
     1     1     2 1
     2     1     3 1
     3     1     4 1
     4     4     5 1
     5     4    13 1
     6     4    14 1
     7     5     6 1
     8     5     7 1
     9     5    15 1
    10     6    10 1
    11     6    11 1
    12     6    12 1
    13     7     8 1
    14     7     9 1
    15    10    16 1
    16    10    17 1
    17    10    18 1
    18    11    19 1
    19    11    20 1
    20    11    21 1
    21    12    22 1
    22    12    23 1
    23    12    24 1
@<TRIPOS>SUBSTRUCTURE
     1 SIF         1 TEMP              0 ****  ****    0 ROOT
