@<TRIPOS>MOLECULE
SIF
   24    23     1     0     0
SMALL
bcc


@<TRIPOS>ATOM
      1 C1         -0.3030   -0.9180   -0.4540 c         1 SIF      0.900600
      2 O1          0.6410   -1.7240   -0.7140 o         1 SIF     -0.884300
      3 O2         -1.2050   -1.2080    0.3970 o         1 SIF     -0.884300
      4 C2         -0.3870    0.4580   -1.1250 c3        1 SIF     -0.141400
      5 C3          0.3790    0.6220   -2.4080 c3        1 SIF     -0.326700
      6 SI         -0.5850    0.1360   -3.9170 Si        1 SIF      0.692000
      7 C4          0.7180    2.0760   -2.7170 c         1 SIF      0.906600
      8 O3          1.3970    2.8190   -1.9570 o         1 SIF     -0.863300
      9 O4          0.2740    2.4970   -3.8490 o         1 SIF     -0.863300
     10 C5          0.3690    0.1190   -5.5120 c3        1 SIF     -0.292767
     11 C6         -2.2200    0.9710   -4.1550 c3        1 SIF     -0.292767
     12 C7         -1.0520   -1.6620   -3.7510 c3        1 SIF     -0.292767
     13 H21        -1.4710    0.6960   -1.2930 hc        1 SIF      0.022200
     14 H22         0.0010    1.1990   -0.3740 hc        1 SIF      0.022200
     15 H3          1.3300    0.0390   -2.3180 hc        1 SIF      0.076700
     16 H51        -0.2780   -0.1900   -6.3620 hc        1 SIF      0.024478
     17 H52         1.2230   -0.5920   -5.4570 hc        1 SIF      0.024478
     18 H53         0.7730    1.1340   -5.7260 hc        1 SIF      0.024478
     19 H61        -2.8820    0.8000   -3.2770 hc        1 SIF      0.024478
     20 H62        -2.0730    2.0690   -4.2700 hc        1 SIF      0.024478
     21 H63        -2.7430    0.5880   -5.0590 hc        1 SIF      0.024478
     22 H71        -0.7130   -2.0360   -2.7530 hc        1 SIF      0.024478
     23 H72        -2.1520   -1.8110   -3.8190 hc        1 SIF      0.024478
     24 H73        -0.5740   -2.2880   -4.5360 hc        1 SIF      0.024478
@<TRIPOS>BOND
     1    1    2 1   
     2    1    3 1   
     3    1    4 1   
     4    4    5 1   
     5    4   13 1   
     6    4   14 1   
     7    5    6 1   
     8    5    7 1   
     9    5   15 1   
    10    6   10 1   
    11    6   11 1   
    12    6   12 1   
    13    7    8 1   
    14    7    9 1   
    15   10   16 1   
    16   10   17 1   
    17   10   18 1   
    18   11   19 1   
    19   11   20 1   
    20   11   21 1   
    21   12   22 1   
    22   12   23 1   
    23   12   24 1   
@<TRIPOS>SUBSTRUCTURE
     1 SIF         1 TEMP              0 ****  ****    0 ROOT
