@<TRIPOS>MOLECULE
SIG
   77    78     1     0     0
SMALL
bcc


@<TRIPOS>ATOM
      1 C1          1.1990   -1.0890   -0.5940 ca        1 SIG      0.128100
      2 C2          2.4890   -0.6690   -0.2230 ca        1 SIG      0.037100
      3 C3          2.7920   -0.5550    1.1510 ca        1 SIG      0.172100
      4 C4          1.8440   -0.8510    2.1420 ca        1 SIG     -0.244600
      5 C5          0.5560   -1.2700    1.7260 ca        1 SIG      0.208100
      6 C6          0.2300   -1.3870    0.3710 ca        1 SIG     -0.287000
      7 O7          4.0770   -0.1350    1.4330 os        1 SIG     -0.197200
      8 C8          4.4280   -0.0160    2.7680 cc        1 SIG      0.118900
      9 C9          3.5900   -0.2770    3.8000 cd        1 SIG     -0.259400
     10 C10         2.2060   -0.7220    3.5610 c         1 SIG      0.599900
     11 O12         3.4870   -0.3770   -1.1250 oh        1 SIG     -0.476100
     12 O13         0.9950   -1.1730   -1.9580 os        1 SIG     -0.340900
     13 O14        -0.3270   -1.5430    2.7430 os        1 SIG     -0.279900
     14 O15         1.4190   -0.9660    4.4850 o         1 SIG     -0.528100
     15 C16        -1.6300   -1.9740    2.3620 c3        1 SIG      0.106700
     16 C20         5.8430    0.4490    2.8760 c3        1 SIG     -0.042200
     17 C21         6.8040   -0.7270    2.9120 c3        1 SIG     -0.073400
     18 C22         8.2540   -0.2790    2.8040 c3        1 SIG     -0.065700
     19 C23         9.2270   -1.4640    2.8860 c3        1 SIG     -0.054700
     20 C24        10.5940   -1.1070    2.2780 c3        1 SIG     -0.055700
     21 C25        10.7550   -1.4370    0.7870 c3        1 SIG     -0.033500
     22 C26        -0.3220   -1.5110   -2.3830 c3        1 SIG      0.120700
     23 C27         8.5800    0.7290    3.8920 c3        1 SIG     -0.095100
     24 C28         8.6680   -2.7510    2.3210 c3        1 SIG     -0.091100
     25 C29        12.1490   -1.1340    0.3470 c2        1 SIG     -0.146200
     26 C30        12.9300   -1.8980   -0.4280 ce        1 SIG     -0.144000
     27 C31        12.5810   -3.1860   -0.9880 ce        1 SIG     -0.129000
     28 C32        13.4480   -3.9170   -1.7120 cf        1 SIG     -0.120000
     29 C33         4.0240   -0.1200    5.2070 c3        1 SIG     -0.041900
     30 C34         9.8020   -0.6470   -0.0930 c3        1 SIG     -0.089100
     31 C35        11.6820   -1.8040    3.0780 c3        1 SIG     -0.093100
     32 C36        13.1490   -5.2120   -2.3000 cf        1 SIG     -0.091200
     33 C37        11.8940   -5.6010   -2.6030 c2        1 SIG     -0.162200
     34 C38        11.5640   -6.9040   -3.2080 c3        1 SIG     -0.063900
     35 C39        14.3130   -6.0970   -2.5650 c3        1 SIG     -0.056900
     36 H6         -0.7710   -1.7120    0.0620 ha        1 SIG      0.150000
     37 HO2         3.0940   -0.3930   -2.0110 ho        1 SIG      0.432000
     38 H161       -2.1400   -2.1310    3.3470 h1        1 SIG      0.047700
     39 H162       -1.5790   -2.9310    1.7880 h1        1 SIG      0.047700
     40 H163       -2.1510   -1.1840    1.7690 h1        1 SIG      0.047700
     41 H201        5.9410    1.0640    3.8100 hc        1 SIG      0.070700
     42 H202        6.0850    1.1060    1.9970 hc        1 SIG      0.070700
     43 H211        6.6550   -1.3030    3.8630 hc        1 SIG      0.052700
     44 H212        6.5590   -1.4090    2.0540 hc        1 SIG      0.052700
     45 H22         8.3850    0.2280    1.8060 hc        1 SIG      0.055700
     46 H23         9.3990   -1.6510    3.9890 hc        1 SIG      0.045700
     47 H24        10.7430    0.0060    2.3870 hc        1 SIG      0.046700
     48 H25        10.5440   -2.5350    0.6480 hc        1 SIG      0.057700
     49 H261       -0.2470   -1.4770   -3.5000 h1        1 SIG      0.049700
     50 H262       -0.5920   -2.5370   -2.0350 h1        1 SIG      0.049700
     51 H263       -1.0600   -0.7600   -2.0110 h1        1 SIG      0.049700
     52 H271        8.2510    0.3500    4.8900 hc        1 SIG      0.034367
     53 H272        8.0630    1.6980    3.6920 hc        1 SIG      0.034367
     54 H273        9.6790    0.9240    3.9370 hc        1 SIG      0.034367
     55 H281        7.8160   -3.1150    2.9470 hc        1 SIG      0.036367
     56 H282        9.4580   -3.5430    2.3250 hc        1 SIG      0.036367
     57 H283        8.3030   -2.6190    1.2740 hc        1 SIG      0.036367
     58 H29        12.5310   -0.1600    0.7020 ha        1 SIG      0.119000
     59 H30        13.9430   -1.5340   -0.6820 ha        1 SIG      0.119000
     60 H31        11.5590   -3.5550   -0.7960 ha        1 SIG      0.126000
     61 H32        14.4750   -3.5470   -1.8860 ha        1 SIG      0.123000
     62 H331        4.1540    0.9640    5.4540 hc        1 SIG      0.050367
     63 H332        4.9990   -0.6400    5.3820 hc        1 SIG      0.050367
     64 H333        3.2600   -0.5500    5.9020 hc        1 SIG      0.050367
     65 H341       10.0280   -0.8440   -1.1690 hc        1 SIG      0.038033
     66 H342        9.9080    0.4490    0.0950 hc        1 SIG      0.038033
     67 H343        8.7440   -0.9450    0.1020 hc        1 SIG      0.038033
     68 H351       12.6940   -1.5320    2.6920 hc        1 SIG      0.035700
     69 H352       11.6280   -1.5040    4.1520 hc        1 SIG      0.035700
     70 H353       11.5660   -2.9130    3.0130 hc        1 SIG      0.035700
     71 H37        11.0410   -4.9290   -2.4150 ha        1 SIG      0.123000
     72 H381       12.1190   -7.7340   -2.7020 hc        1 SIG      0.042033
     73 H382       10.4690   -7.1130   -3.1330 hc        1 SIG      0.042033
     74 H383       11.8500   -6.9100   -4.2910 hc        1 SIG      0.042033
     75 H391       15.2810   -5.5500   -2.4610 hc        1 SIG      0.041033
     76 H392       14.2560   -6.5190   -3.6000 hc        1 SIG      0.041033
     77 H393       14.3130   -6.9520   -1.8420 hc        1 SIG      0.041033
@<TRIPOS>BOND
     1    1    2 ar
     2    1    6 ar
     3    1   12 1
     4    2    3 ar
     5    2   11 1
     6    3    4 ar
     7    3    7 1
     8    4    5 ar
     9    4   10 1
    10    5    6 ar
    11    5   13 1
    12    6   36 1
    13    7    8 1
    14    8    9 2
    15    8   16 1
    16    9   10 1
    17    9   29 1
    18   10   14 2
    19   11   37 1
    20   12   22 1
    21   13   15 1
    22   15   38 1
    23   15   39 1
    24   15   40 1
    25   16   17 1
    26   16   41 1
    27   16   42 1
    28   17   18 1
    29   17   43 1
    30   17   44 1
    31   18   19 1
    32   18   23 1
    33   18   45 1
    34   19   20 1
    35   19   24 1
    36   19   46 1
    37   20   21 1
    38   20   31 1
    39   20   47 1
    40   21   25 1
    41   21   30 1
    42   21   48 1
    43   22   49 1
    44   22   50 1
    45   22   51 1
    46   23   52 1
    47   23   53 1
    48   23   54 1
    49   24   55 1
    50   24   56 1
    51   24   57 1
    52   25   26 2
    53   25   58 1
    54   26   27 1
    55   26   59 1
    56   27   28 2
    57   27   60 1
    58   28   32 1
    59   28   61 1
    60   29   62 1
    61   29   63 1
    62   29   64 1
    63   30   65 1
    64   30   66 1
    65   30   67 1
    66   31   68 1
    67   31   69 1
    68   31   70 1
    69   32   33 2
    70   32   35 1
    71   33   34 1
    72   33   71 1
    73   34   72 1
    74   34   73 1
    75   34   74 1
    76   35   75 1
    77   35   76 1
    78   35   77 1
@<TRIPOS>SUBSTRUCTURE
     1 SIG         1 TEMP              0 ****  ****    0 ROOT
