@<TRIPOS>MOLECULE
molecule
   64    67     1     0     0
SMALL
bcc


@<TRIPOS>ATOM
      1 C1           0.0000     0.0000     0.0000 c3         1 SIH      -0.117400
      2 C2           1.5280     0.0000     0.0000 c3         1 SIH      -0.168400
      3 C3           1.9870     0.0000     1.4460 c          1 SIH       0.568300
      4 O3           2.7760    -0.8170     1.8690 o          1 SIH      -0.537100
      5 C4           1.4180     1.0490     2.3030 ce         1 SIH      -0.265200
      6 C5           0.2400     1.5760     1.9820 c2         1 SIH      -0.042400
      7 C6          -0.3260     2.6900     2.8450 c3         1 SIH      -0.052200
      8 C7          -0.6620     3.8670     1.9220 c3         1 SIH      -0.069400
      9 C8          -1.5990     3.4070     0.8060 c3         1 SIH      -0.066700
     10 C9          -0.9130     2.3440    -0.0700 c3         1 SIH      -0.050700
     11 C10         -0.5750     1.1380     0.8050 c3         1 SIH      -0.019800
     12 C11         -1.8110     1.9060    -1.2210 c3         1 SIH       0.154100
     13 O11         -1.0720     1.0000    -2.0790 os         1 SIH      -0.438900
     14 C12         -2.2900     3.1060    -2.0540 c3         1 SIH      -0.081400
     15 C13         -2.9840     4.0770    -1.1410 c3         1 SIH      -0.052000
     16 C14         -1.9520     4.5770    -0.0930 c3         1 SIH      -0.070700
     17 C15         -2.7190     5.7250     0.5750 c3         1 SIH      -0.076400
     18 C16         -3.4030     6.4310    -0.6260 c3         1 SIH      -0.075400
     19 C17         -3.5190     5.3690    -1.7480 c3         1 SIH      -0.159700
     20 C18         -4.1000     3.3630    -0.3790 c3         1 SIH      -0.106100
     21 C19         -1.9160     0.6510     1.3580 c3         1 SIH      -0.101100
     22 C20         -4.9590     5.1970    -2.1570 c          1 SIH       0.579100
     23 O20         -5.8430     5.4410    -1.3710 o          1 SIH      -0.539100
     24 C21         -5.2960     4.7200    -3.5460 c3         1 SIH      -0.194100
     25 CH1         -1.7200     0.0410    -2.7590 c          1 SIH       0.614100
     26 OH1         -2.9190    -0.0670    -2.6560 o          1 SIH      -0.559000
     27 CH2         -0.9530    -0.9020    -3.6510 c3         1 SIH      -0.103400
     28 CH3         -1.9210    -1.8890    -4.3030 c3         1 SIH      -0.175400
     29 CH4         -1.1550    -2.8320    -5.1940 c          1 SIH       0.890600
     30 OH4          0.0440    -2.7230    -5.2980 o          1 SIH      -0.849300
     31 OH5         -1.8020    -3.7900    -5.8740 o          1 SIH      -0.849300
     32 H11A        -0.3490     0.0840    -1.0220 hc         1 SIH       0.087200
     33 H12         -0.3490    -0.9360     0.4200 hc         1 SIH       0.087200
     34 H21          1.8940    -0.8880    -0.5000 hc         1 SIH       0.072700
     35 H22          1.8940     0.8880    -0.5010 hc         1 SIH       0.072700
     36 H41          1.8570     1.2540     3.2720 ha         1 SIH       0.141000
     37 H61          0.4110     2.9970     3.5760 hc         1 SIH       0.051200
     38 H62         -1.2250     2.3470     3.3420 hc         1 SIH       0.051200
     39 H71          0.2520     4.2510     1.4850 hc         1 SIH       0.044700
     40 H72         -1.1460     4.6460     2.4980 hc         1 SIH       0.044700
     41 H8          -2.5030     2.9950     1.2370 hc         1 SIH       0.071700
     42 H9           0.0040     2.7570    -0.4730 hc         1 SIH       0.066700
     43 H11         -2.6750     1.3920    -0.8170 h1         1 SIH       0.074700
     44 H121        -2.9810     2.7670    -2.8160 hc         1 SIH       0.058200
     45 H122        -1.4380     3.5890    -2.5180 hc         1 SIH       0.058200
     46 H14         -1.0660     4.9540    -0.5890 hc         1 SIH       0.058700
     47 H151        -2.0350     6.4000     1.0750 hc         1 SIH       0.046700
     48 H152        -3.4600     5.3390     1.2640 hc         1 SIH       0.046700
     49 H161        -2.7950     7.2620    -0.9630 hc         1 SIH       0.052700
     50 H162        -4.3890     6.7770    -0.3390 hc         1 SIH       0.052700
     51 H17         -2.9140     5.6590    -2.5990 hc         1 SIH       0.066700
     52 H181        -4.6110     4.0730     0.2610 hc         1 SIH       0.047700
     53 H182        -4.8050     2.9390    -1.0830 hc         1 SIH       0.047700
     54 H183        -3.6750     2.5720     0.2270 hc         1 SIH       0.047700
     55 H191        -2.5260     0.2740     0.5460 hc         1 SIH       0.042700
     56 H192        -1.7430    -0.1400     2.0780 hc         1 SIH       0.042700
     57 H193        -2.4280     1.4740     1.8410 hc         1 SIH       0.042700
     58 H211        -5.7070     3.7190    -3.4950 hc         1 SIH       0.062700
     59 H212        -6.0260     5.3870    -3.9900 hc         1 SIH       0.062700
     60 H213        -4.3990     4.7120    -4.1530 hc         1 SIH       0.062700
     61 HH21        -0.2260    -1.4450    -3.0610 hc         1 SIH       0.079700
     62 HH22        -0.4420    -0.3350    -4.4210 hc         1 SIH       0.079700
     63 HH31        -2.6480    -1.3460    -4.8940 hc         1 SIH       0.045200
     64 HH32        -2.4320    -2.4550    -3.5330 hc         1 SIH       0.045200
@<TRIPOS>BOND
     1     1     2 1
     2     1    11 1
     3     1    32 1
     4     1    33 1
     5     2     3 1
     6     2    34 1
     7     2    35 1
     8     3     4 2
     9     3     5 1
    10     5     6 2
    11     5    36 1
    12     6     7 1
    13     6    11 1
    14     7     8 1
    15     7    37 1
    16     7    38 1
    17     8     9 1
    18     8    39 1
    19     8    40 1
    20     9    10 1
    21     9    16 1
    22     9    41 1
    23    10    11 1
    24    10    12 1
    25    10    42 1
    26    11    21 1
    27    12    13 1
    28    12    14 1
    29    12    43 1
    30    13    25 1
    31    14    15 1
    32    14    44 1
    33    14    45 1
    34    15    16 1
    35    15    19 1
    36    15    20 1
    37    16    17 1
    38    16    46 1
    39    17    18 1
    40    17    47 1
    41    17    48 1
    42    18    19 1
    43    18    49 1
    44    18    50 1
    45    19    22 1
    46    19    51 1
    47    20    52 1
    48    20    53 1
    49    20    54 1
    50    21    55 1
    51    21    56 1
    52    21    57 1
    53    22    23 2
    54    22    24 1
    55    24    58 1
    56    24    59 1
    57    24    60 1
    58    25    26 2
    59    25    27 1
    60    27    28 1
    61    27    61 1
    62    27    62 1
    63    28    29 1
    64    28    63 1
    65    28    64 1
    66    29    30 1
    67    29    31 1
@<TRIPOS>SUBSTRUCTURE
     1 SIH         1 TEMP              0 ****  ****    0 ROOT
