@<TRIPOS>MOLECULE
SIH
   64    67     1     0     0
SMALL
bcc


@<TRIPOS>ATOM
      1 C1         -0.1490   -0.3100    0.6560 c3        1 SIH     -0.070400
      2 C2          1.2830   -0.2450    0.1790 c3        1 SIH     -0.178400
      3 C3          2.1850    0.1800    1.3000 c         1 SIH      0.570300
      4 O3          3.2980   -0.3210    1.5030 o         1 SIH     -0.547100
      5 C4          1.6550    1.2790    2.1200 ce        1 SIH     -0.264200
      6 C5          0.3760    1.6850    2.0620 c2        1 SIH     -0.036400
      7 C6         -0.0550    2.9360    2.7500 c3        1 SIH     -0.055200
      8 C7         -0.4980    3.9370    1.6990 c3        1 SIH     -0.070400
      9 C8         -1.5710    3.3400    0.8010 c3        1 SIH     -0.052700
     10 C9         -1.0840    2.0390    0.1300 c3        1 SIH     -0.044700
     11 C10        -0.6880    1.0120    1.2230 c3        1 SIH     -0.008800
     12 C11        -2.1100    1.5180   -0.8920 c3        1 SIH      0.157100
     13 O11        -1.3910    0.6320   -1.7720 os        1 SIH     -0.459900
     14 C12        -2.7400    2.5740   -1.8140 c3        1 SIH     -0.098400
     15 C13        -3.2060    3.7970   -1.0550 c3        1 SIH     -0.032000
     16 C14        -1.9810    4.3230   -0.2730 c3        1 SIH     -0.066700
     17 C15        -2.3660    5.7400    0.1270 c3        1 SIH     -0.072400
     18 C16        -3.2410    6.2410   -1.0250 c3        1 SIH     -0.075400
     19 C17        -3.5560    5.0320   -1.9220 c3        1 SIH     -0.164700
     20 C18        -4.3960    3.4480   -0.1760 c3        1 SIH     -0.090100
     21 C19        -1.8770    0.6280    2.1040 c3        1 SIH     -0.090100
     22 C20        -4.9730    5.0370   -2.4340 c         1 SIH      0.580100
     23 O20        -5.8910    5.6390   -1.8640 o         1 SIH     -0.549100
     24 C21        -5.1980    4.2870   -3.7080 c3        1 SIH     -0.206100
     25 CH1        -2.1130   -0.3190   -2.4620 c         1 SIH      0.636100
     26 OH1        -3.3080   -0.4340   -2.1750 o         1 SIH     -0.577000
     27 CH2        -1.2850   -1.0620   -3.4600 c3        1 SIH     -0.106400
     28 CH3        -1.5480   -0.5640   -4.8620 c3        1 SIH     -0.203400
     29 CH4        -0.7890   -1.4250   -5.8960 c         1 SIH      0.915600
     30 OH4        -0.3770   -2.5650   -5.5410 o         1 SIH     -0.839800
     31 OH5        -0.6370   -0.9300   -7.0470 o         1 SIH     -0.839800
     32 H11A       -0.8050   -0.6590   -0.1820 hc        1 SIH      0.059200
     33 H12        -0.2120   -1.0900    1.4650 hc        1 SIH      0.059200
     34 H21         1.6000   -1.2460   -0.2180 hc        1 SIH      0.083200
     35 H22         1.3790    0.4950   -0.6610 hc        1 SIH      0.083200
     36 H41         2.3910    1.7870    2.7650 ha        1 SIH      0.139000
     37 H61         0.7830    3.3710    3.3560 hc        1 SIH      0.049200
     38 H62        -0.8980    2.7160    3.4570 hc        1 SIH      0.049200
     39 H71        -0.9030    4.8540    2.2000 hc        1 SIH      0.045200
     40 H72         0.3830    4.2500    1.0800 hc        1 SIH      0.045200
     41 H8         -2.4680    3.1190    1.4440 hc        1 SIH      0.056700
     42 H9         -0.1430    2.2730   -0.4480 hc        1 SIH      0.070700
     43 H11        -2.9220    0.9470   -0.3620 h1        1 SIH      0.067700
     44 H121       -1.9850    2.8690   -2.5910 hc        1 SIH      0.065200
     45 H122       -3.5970    2.0810   -2.3440 hc        1 SIH      0.065200
     46 H14        -1.1210    4.4060   -1.0010 hc        1 SIH      0.055700
     47 H151       -1.4630    6.3830    0.2630 hc        1 SIH      0.040700
     48 H152       -2.9370    5.7430    1.0880 hc        1 SIH      0.040700
     49 H161       -4.1880    6.6890   -0.6300 hc        1 SIH      0.052200
     50 H162       -2.7080    7.0250   -1.6160 hc        1 SIH      0.052200
     51 H17        -2.8700    5.0420   -2.8130 hc        1 SIH      0.068700
     52 H181       -4.1720    2.5760    0.4830 hc        1 SIH      0.041700
     53 H182       -5.2710    3.1750   -0.8170 hc        1 SIH      0.041700
     54 H183       -4.6800    4.3230    0.4570 hc        1 SIH      0.041700
     55 H191       -2.6010    0.0150    1.5150 hc        1 SIH      0.039700
     56 H192       -1.5240    0.0210    2.9730 hc        1 SIH      0.039700
     57 H193       -2.4140    1.5190    2.5050 hc        1 SIH      0.039700
     58 H211       -6.2860    4.2440   -3.9570 hc        1 SIH      0.068700
     59 H212       -4.6570    4.7980   -4.5420 hc        1 SIH      0.068700
     60 H213       -4.8030    3.2460   -3.6150 hc        1 SIH      0.068700
     61 HH21       -1.5420   -2.1550   -3.4040 hc        1 SIH      0.087200
     62 HH22       -0.1960   -0.9500   -3.2170 hc        1 SIH      0.087200
     63 HH31       -2.6390   -0.6230   -5.0980 hc        1 SIH      0.034200
     64 HH32       -1.2230    0.5000   -4.9690 hc        1 SIH      0.034200
@<TRIPOS>BOND
     1    1    2 1   
     2    1   11 1   
     3    1   32 1   
     4    1   33 1   
     5    2    3 1   
     6    2   34 1   
     7    2   35 1   
     8    3    4 2   
     9    3    5 1   
    10    5    6 2   
    11    5   36 1   
    12    6    7 1   
    13    6   11 1   
    14    7    8 1   
    15    7   37 1   
    16    7   38 1   
    17    8    9 1   
    18    8   39 1   
    19    8   40 1   
    20    9   10 1   
    21    9   16 1   
    22    9   41 1   
    23   10   11 1   
    24   10   12 1   
    25   10   42 1   
    26   11   21 1   
    27   12   13 1   
    28   12   14 1   
    29   12   43 1   
    30   13   25 1   
    31   14   15 1   
    32   14   44 1   
    33   14   45 1   
    34   15   16 1   
    35   15   19 1   
    36   15   20 1   
    37   16   17 1   
    38   16   46 1   
    39   17   18 1   
    40   17   47 1   
    41   17   48 1   
    42   18   19 1   
    43   18   49 1   
    44   18   50 1   
    45   19   22 1   
    46   19   51 1   
    47   20   52 1   
    48   20   53 1   
    49   20   54 1   
    50   21   55 1   
    51   21   56 1   
    52   21   57 1   
    53   22   23 2   
    54   22   24 1   
    55   24   58 1   
    56   24   59 1   
    57   24   60 1   
    58   25   26 2   
    59   25   27 1   
    60   27   28 1   
    61   27   61 1   
    62   27   62 1   
    63   28   29 1   
    64   28   63 1   
    65   28   64 1   
    66   29   30 1   
    67   29   31 1   
@<TRIPOS>SUBSTRUCTURE
     1 SIH         1 TEMP              0 ****  ****    0 ROOT
