@<TRIPOS>MOLECULE
SII
   70    74     1     0     0
SMALL
bcc


@<TRIPOS>ATOM
      1 C1           0.0000     0.0000     0.0000 ca         1 SII      -0.128500
      2 C2           1.3890     0.0000     0.0000 ca         1 SII      -0.083400
      3 C3           2.0800     0.0000     1.2040 ca         1 SII      -0.128500
      4 C8           1.5190     0.5120    -2.3200 c          1 SII       0.559100
      5 C9           2.2180     0.3950    -3.6500 c3         1 SII      -0.070100
      6 C10         -5.7170     1.5890     4.9660 ca         1 SII      -0.186000
      7 C11         -4.3680     1.8860     4.8240 ca         1 SII       0.019600
      8 C12         -3.4830     0.9010     4.4040 ca         1 SII      -0.401000
      9 C13         -3.9460    -0.3710     4.1280 ca         1 SII      -0.053000
     10 C14         -5.2900    -0.6650     4.2700 ca         1 SII      -0.168000
     11 C15         -6.1760     0.3130     4.6880 ca         1 SII       0.144900
     12 C16         -2.0080     3.5440     3.5750 c3         1 SII      -0.011400
     13 C19         -1.5180     1.4240     5.4970 c3         1 SII       0.006300
     14 C20         -1.9020     2.0650     3.1900 c3         1 SII       0.006300
     15 C21         -2.6090     5.1050     5.4250 c2         1 SII       0.490200
     16 C22         -4.6270     4.2330     5.5180 c          1 SII       0.747900
     17 C24         -0.7790     8.2970     5.3680 c3         1 SII      -0.039400
     18 C27         -2.1260     8.8820     7.9030 c3         1 SII      -0.016400
     19 F1          -7.4880     0.0240     4.8260 f          1 SII      -0.125900
     20 N1           2.0890     0.0000    -1.2100 ns         1 SII      -0.033100
     21 O1           0.4430     1.0660    -2.2480 o          1 SII      -0.630100
     22 N2          -0.9990     1.3800     4.1240 n3         1 SII      -0.513600
     23 O2          -5.8290     4.2000     5.7080 o          1 SII      -0.654500
     24 N3          -3.9010     3.1740     5.1030 n          1 SII      -0.028000
     25 C4           1.3850    -0.0010     2.3970 ca         1 SII      -0.069000
     26 N4          -3.8730     5.3230     5.6950 ne         1 SII      -0.683100
     27 C5           0.0020    -0.0030     2.3940 ca         1 SII      -0.117300
     28 C6          -0.6890    -0.0020     1.1970 ca         1 SII      -0.069000
     29 C17         -2.5170     3.6570     5.0080 c3         1 SII      -0.091900
     30 C18         -1.6120     2.8810     5.9600 c3         1 SII      -0.011400
     31 C23         -1.0570     9.7340     5.8120 c3         1 SII      -0.016400
     32 C25         -1.8600     7.3720     5.9300 c3         1 SII       0.115500
     33 C26         -1.8490     7.4440     7.4590 c3         1 SII      -0.039400
     34 C28         -1.0450     9.8070     7.3410 c3         1 SII      -0.029400
     35 H1          -0.5420     0.0000    -0.9380 ha         1 SII       0.130500
     36 H3           3.1630     0.0010     1.2080 ha         1 SII       0.130500
     37 H7          -0.1670    -0.5150     4.4540 h1         1 SII       0.029200
     38 H7A         -1.6980    -0.5160     3.5680 h1         1 SII       0.029200
     39 H9           2.4010    -0.6500    -3.8710 hc         1 SII       0.025033
     40 H9A          1.5950     0.8240    -4.4250 hc         1 SII       0.025033
     41 H9B          3.1620     0.9250    -3.6100 hc         1 SII       0.025033
     42 H10         -6.4090     2.3540     5.2940 ha         1 SII       0.184000
     43 H12         -2.4300     1.1300     4.2920 ha         1 SII       0.268000
     44 H13         -3.2560    -1.1390     3.8000 ha         1 SII       0.111000
     45 H14         -5.6510    -1.6630     4.0530 ha         1 SII       0.119000
     46 H16         -2.7000     4.0410     2.9070 hc         1 SII       0.032450
     47 H16A        -1.0310     4.0060     3.5020 hc         1 SII       0.032450
     48 H19         -0.8490     0.8800     6.1520 h1         1 SII       0.083450
     49 H19A        -2.5030     0.9740     5.5240 h1         1 SII       0.083450
     50 H20         -2.8830     1.6090     3.2380 h1         1 SII       0.083450
     51 H20A        -1.5090     1.9830     2.1840 h1         1 SII       0.083450
     52 H24A         0.1900     7.9860     5.7390 hc         1 SII       0.021700
     53 H27         -3.0950     9.1930     7.5320 hc         1 SII       0.019450
     54 H27A        -2.1150     8.9320     8.9860 hc         1 SII       0.019450
     55 HN1          3.0130    -0.3830    -1.2540 hn         1 SII       0.167500
     56 H4           1.9240    -0.0010     3.3370 ha         1 SII       0.109000
     57 H6          -1.7720    -0.0020     1.1970 ha         1 SII       0.109000
     58 H18         -2.0280     2.9150     6.9600 hc         1 SII       0.032450
     59 H18A        -0.6230     3.3240     5.9590 hc         1 SII       0.032450
     60 H23         -2.0270    10.0440     5.4450 hc         1 SII       0.019450
     61 H23A        -0.2890    10.3880     5.4150 hc         1 SII       0.019450
     62 H25         -2.8290     7.6870     5.5630 h1         1 SII       0.070700
     63 H26         -2.6160     6.7910     7.8560 hc         1 SII       0.021700
     64 H26A        -0.8780     7.1350     7.8270 hc         1 SII       0.021700
     65 H28         -1.2440    10.8250     7.6540 hc         1 SII       0.015700
     66 H28A        -0.0750     9.4940     7.7090 hc         1 SII       0.015700
     67 C7          -0.7520    -0.0040     3.6990 c3         1 SII       0.186100
     68 N5          -1.5940     5.9950     5.5050 nu         1 SII      -0.363200
     69 H24         -0.7900     8.2460     4.2860 hc         1 SII       0.021700
     70 HN5         -0.6650     5.7190     5.2550 hn         1 SII       0.293800
@<TRIPOS>BOND
     1     1     2 ar  
     2     1    28 ar  
     3     1    35 1   
     4     2     3 ar  
     5     2    20 1   
     6     3    25 ar  
     7     3    36 1   
     8     4     5 1   
     9     4    20 1   
    10     4    21 2   
    11     5    39 1   
    12     5    40 1   
    13     5    41 1   
    14     6     7 ar  
    15     6    11 ar  
    16     6    42 1   
    17     7     8 ar  
    18     7    24 1   
    19     8     9 ar  
    20     8    43 1   
    21     9    10 ar  
    22     9    44 1   
    23    10    11 ar  
    24    10    45 1   
    25    11    19 1   
    26    12    14 1   
    27    12    29 1   
    28    12    46 1   
    29    12    47 1   
    30    13    22 1   
    31    13    30 1   
    32    13    48 1   
    33    13    49 1   
    34    14    22 1   
    35    14    50 1   
    36    14    51 1   
    37    15    26 2   
    38    15    29 1   
    39    15    68 1   
    40    16    23 2   
    41    16    24 1   
    42    16    26 1   
    43    17    31 1   
    44    17    32 1   
    45    17    52 1   
    46    17    69 1   
    47    18    33 1   
    48    18    34 1   
    49    18    53 1   
    50    18    54 1   
    51    20    55 1   
    52    22    67 1   
    53    24    29 1   
    54    25    27 ar  
    55    25    56 1   
    56    27    28 ar  
    57    27    67 1   
    58    28    57 1   
    59    29    30 1   
    60    30    58 1   
    61    30    59 1   
    62    31    34 1   
    63    31    60 1   
    64    31    61 1   
    65    32    33 1   
    66    32    62 1   
    67    32    68 1   
    68    33    63 1   
    69    33    64 1   
    70    34    65 1   
    71    34    66 1   
    72    37    67 1   
    73    38    67 1   
    74    68    70 1   
@<TRIPOS>SUBSTRUCTURE
     1 SII         1 TEMP              0 ****  ****    0 ROOT
