@<TRIPOS>MOLECULE
SIJ
   40    43     1     0     0
SMALL
bcc


@<TRIPOS>ATOM
      1 C12          0.0000     0.0000     0.0000 cc         1 SIJ       0.225700
      2 N3           1.3010     0.0000     0.0000 nd         1 SIJ      -0.481100
      3 N4          -0.4660    -0.0000     1.2810 na         1 SIJ       0.175000
      4 C13          0.6240     0.0000     2.1150 ca         1 SIJ       0.229800
      5 N5           0.7970     0.0010     3.4330 nb         1 SIJ      -0.652000
      6 C            2.0080     0.0020     3.9500 ca         1 SIJ       0.669900
      7 C11          1.7530     0.0000     1.2770 ca         1 SIJ      -0.201200
      8 C1           3.0230     0.0010     1.8770 ca         1 SIJ       0.594200
      9 N            3.0980     0.0030     3.2040 nb         1 SIJ      -0.708000
     10 N1           4.1710     0.0010     1.1030 nh         1 SIJ      -0.432300
     11 C10          5.3730     0.0020     1.9460 c3         1 SIJ       0.132800
     12 C9           6.6150    -0.1450     1.0640 c3         1 SIJ      -0.026400
     13 C4           6.6660     1.0150     0.0670 c3         1 SIJ       0.100200
     14 C3           5.3820     1.0200    -0.7650 c3         1 SIJ      -0.026400
     15 C2           4.1760     1.1330     0.1680 c3         1 SIJ       0.132800
     16 N2           6.7830     2.2840     0.7960 n7         1 SIJ      -0.578200
     17 C8           7.9830     2.3000     1.6430 c3         1 SIJ       0.133800
     18 C7           9.2300     2.1650     0.7650 c3         1 SIJ      -0.061400
     19 C6           9.1570     0.8540    -0.0200 c3         1 SIJ      -0.030400
     20 C5           7.8730     0.8400    -0.8570 c3         1 SIJ      -0.052400
     21 H12         -0.6210     0.0000    -0.8870 h5         1 SIJ       0.031800
     22 H4          -1.4270    -0.0000     1.5620 hn         1 SIJ       0.133700
     23 H            2.1140     0.0040     5.0280 h5         1 SIJ      -0.002900
     24 H101         5.4290     0.9350     2.4930 h1         1 SIJ       0.037450
     25 H102         5.3260    -0.8280     2.6420 h1         1 SIJ       0.037450
     26 H21C         4.2380     2.0600     0.7260 h1         1 SIJ       0.037450
     27 H22C         3.2650     1.1200    -0.4180 h1         1 SIJ       0.037450
     28 H91C         6.5640    -1.0830     0.5240 hc         1 SIJ       0.027950
     29 H92C         7.5030    -0.1270     1.6850 hc         1 SIJ       0.027950
     30 H31C         5.3940     1.8660    -1.4420 hc         1 SIJ       0.027950
     31 H32C         5.3150     0.0990    -1.3310 hc         1 SIJ       0.027950
     32 H2           6.8250     3.0410     0.1440 hn         1 SIJ       0.257800
     33 H51C         7.7930    -0.1050    -1.3800 hc         1 SIJ       0.022200
     34 H52C         7.9000     1.6540    -1.5720 hc         1 SIJ       0.022200
     35 H81C         7.9430     1.4720     2.3410 h1         1 SIJ       0.028200
     36 H82C         8.0260     3.2360     2.1870 h1         1 SIJ       0.028200
     37 H71C         9.2750     2.9980     0.0740 hc         1 SIJ       0.017200
     38 H72C        10.1130     2.1610     1.3920 hc         1 SIJ       0.017200
     39 H61C        10.0160     0.7780    -0.6760 hc         1 SIJ       0.019700
     40 H62C         9.1470     0.0190     0.6700 hc         1 SIJ       0.019700
@<TRIPOS>BOND
     1     1     2 2   
     2     1     3 1   
     3     1    21 1   
     4     2     7 1   
     5     3     4 1   
     6     3    22 1   
     7     4     5 ar  
     8     4     7 ar  
     9     5     6 ar  
    10     6     9 ar  
    11     6    23 1   
    12     7     8 ar  
    13     8     9 ar  
    14     8    10 1   
    15    10    11 1   
    16    10    15 1   
    17    11    12 1   
    18    11    24 1   
    19    11    25 1   
    20    12    13 1   
    21    12    28 1   
    22    12    29 1   
    23    13    14 1   
    24    13    16 1   
    25    13    20 1   
    26    14    15 1   
    27    14    30 1   
    28    14    31 1   
    29    15    26 1   
    30    15    27 1   
    31    16    17 1   
    32    16    32 1   
    33    17    18 1   
    34    17    35 1   
    35    17    36 1   
    36    18    19 1   
    37    18    37 1   
    38    18    38 1   
    39    19    20 1   
    40    19    39 1   
    41    19    40 1   
    42    20    33 1   
    43    20    34 1   
@<TRIPOS>SUBSTRUCTURE
     1 SIJ         1 TEMP              0 ****  ****    0 ROOT
