@<TRIPOS>MOLECULE
molecule
   40    40     1     0     0
SMALL
bcc


@<TRIPOS>ATOM
      1 C1           0.0000     0.0000     0.0000 c2         1 SIL      -0.249000
      2 C2           1.3380     0.0000     0.0000 c2         1 SIL      -0.153200
      3 C5           2.1760     0.0000     1.2440 c3         1 SIL      -0.053200
      4 C7           3.1180     1.2070     1.2790 c3         1 SIL      -0.073400
      5 C10          3.9940     1.1880     2.5330 c3         1 SIL      -0.052400
      6 C13          4.9580     2.3660     2.5800 c3         1 SIL      -0.285600
      7 P16          5.9630     2.4210     4.0810 p5         1 SIL       1.187600
      8 O20          5.1440     2.5280     5.3220 o          1 SIL      -0.809500
      9 O21          6.9250     1.1320     3.9900 os         1 SIL      -0.572200
     10 C23          7.8340     0.9620     2.9180 c3         1 SIL       0.222400
     11 C24          8.5900    -0.3360     3.1140 c3         1 SIL       0.097100
     12 C27          9.5880    -0.6350     2.0210 c3         1 SIL       0.093400
     13 O28          9.4060    -0.2690     4.2870 os         1 SIL      -0.379600
     14 C30         10.4840    -1.1840     4.0300 c3         1 SIL       0.312600
     15 O31         10.4820    -1.5590     2.6430 os         1 SIL      -0.431600
     16 C34         11.7990    -0.4900     4.3620 c3         1 SIL      -0.099600
     17 C38         10.2910    -2.4390     4.8740 c3         1 SIL      -0.099600
     18 O1           6.9730     3.6480     3.8080 o          1 SIL      -0.809500
     19 H11         -0.5420    -0.0000    -0.9380 ha         1 SIL       0.106500
     20 H12         -0.5420     0.0000     0.9380 ha         1 SIL       0.106500
     21 H2           1.8540    -0.0000    -0.9530 ha         1 SIL       0.109000
     22 H51          1.5260     0.0330     2.1100 hc         1 SIL       0.044200
     23 H52          2.7640    -0.9100     1.2760 hc         1 SIL       0.044200
     24 H71          3.7540     1.1860     0.4010 hc         1 SIL       0.035200
     25 H72          2.5300     2.1170     1.2700 hc         1 SIL       0.035200
     26 H101         3.3560     1.2210     3.4080 hc         1 SIL       0.035700
     27 H102         4.5640     0.2670     2.5490 hc         1 SIL       0.035700
     28 H131         5.6190     2.3070     1.7240 hc         1 SIL       0.054700
     29 H132         4.3860     3.2840     2.5130 hc         1 SIL       0.054700
     30 H231         8.5330     1.7900     2.8990 h1         1 SIL       0.036200
     31 H232         7.2890     0.9260     1.9820 h1         1 SIL       0.036200
     32 H24          7.8930    -1.1600     3.2040 h1         1 SIL       0.051700
     33 H271        10.1140     0.2660     1.7280 h1         1 SIL       0.053200
     34 H272         9.0960    -1.0930     1.1710 h1         1 SIL       0.053200
     35 H341        12.6260    -1.1350     4.0920 hc         1 SIL       0.044033
     36 H342        11.8680     0.4370     3.8060 hc         1 SIL       0.044033
     37 H343        11.8380    -0.2780     5.4240 hc         1 SIL       0.044033
     38 H381         9.4040    -2.9640     4.5430 hc         1 SIL       0.044033
     39 H382        10.1790    -2.1600     5.9150 hc         1 SIL       0.044033
     40 H383        11.1550    -3.0830     4.7640 hc         1 SIL       0.044033
@<TRIPOS>BOND
     1     1     2 2
     2     1    19 1
     3     1    20 1
     4     2     3 1
     5     2    21 1
     6     3     4 1
     7     3    22 1
     8     3    23 1
     9     4     5 1
    10     4    24 1
    11     4    25 1
    12     5     6 1
    13     5    26 1
    14     5    27 1
    15     6     7 1
    16     6    28 1
    17     6    29 1
    18     7     8 1
    19     7     9 1
    20     7    18 1
    21     9    10 1
    22    10    11 1
    23    10    30 1
    24    10    31 1
    25    11    12 1
    26    11    13 1
    27    11    32 1
    28    12    15 1
    29    12    33 1
    30    12    34 1
    31    13    14 1
    32    14    15 1
    33    14    16 1
    34    14    17 1
    35    16    35 1
    36    16    36 1
    37    16    37 1
    38    17    38 1
    39    17    39 1
    40    17    40 1
@<TRIPOS>SUBSTRUCTURE
     1 SIL         1 TEMP              0 ****  ****    0 ROOT
