@<TRIPOS>MOLECULE
SIL
   40    40     1     0     0
SMALL
bcc


@<TRIPOS>ATOM
      1 C1         -0.6680    1.8260   -0.3560 c2        1 SIL     -0.252000
      2 C2          0.4040    1.0530   -0.1900 c2        1 SIL     -0.143200
      3 C5          1.2000    0.9890    1.0590 c3        1 SIL     -0.059200
      4 C7          2.6900    0.9740    0.7790 c3        1 SIL     -0.065400
      5 C10         3.4860    0.8590    2.0590 c3        1 SIL     -0.071400
      6 C13         4.9680    0.8360    1.8250 c3        1 SIL     -0.330600
      7 P16         5.6790    0.6700    3.3500 p5        1 SIL      1.341600
      8 O20         5.3100   -0.6200    3.9760 o         1 SIL     -0.859500
      9 O21         7.2750    0.4770    2.8620 os        1 SIL     -0.590200
     10 C23         8.2310    0.6420    3.8530 c3        1 SIL      0.188400
     11 C24         8.8680   -0.7100    4.2140 c3        1 SIL      0.089100
     12 C27         9.3710   -1.4800    2.9930 c3        1 SIL      0.120400
     13 O28        10.0420   -0.4880    5.0180 os        1 SIL     -0.446600
     14 C30        11.2200   -0.8240    4.2870 c3        1 SIL      0.347600
     15 O31        10.7900   -1.5980    3.1640 os        1 SIL     -0.463600
     16 C34        11.9350    0.4360    3.8120 c3        1 SIL     -0.107100
     17 C38        12.1200   -1.6830    5.1680 c3        1 SIL     -0.107100
     18 O1          5.6510    1.9470    4.0980 o         1 SIL     -0.859500
     19 H11        -1.0410    2.4980    0.4270 ha        1 SIL      0.102500
     20 H12        -1.2430    1.8400   -1.2900 ha        1 SIL      0.102500
     21 H2          0.7580    0.3940   -1.0010 ha        1 SIL      0.113000
     22 H51         0.9560    1.8550    1.7310 hc        1 SIL      0.048700
     23 H52         0.9200    0.0520    1.6150 hc        1 SIL      0.048700
     24 H71         2.9390    0.1120    0.1050 hc        1 SIL      0.032200
     25 H72         2.9810    1.9120    0.2380 hc        1 SIL      0.032200
     26 H101        3.2520    1.7240    2.7370 hc        1 SIL      0.056200
     27 H102        3.2040   -0.0810    2.6080 hc        1 SIL      0.056200
     28 H131        5.2490   -0.0100    1.1550 hc        1 SIL      0.066700
     29 H132        5.3040    1.7730    1.3220 hc        1 SIL      0.066700
     30 H231        9.0410    1.3220    3.4620 h1        1 SIL      0.033700
     31 H232        7.7780    1.1050    4.7740 h1        1 SIL      0.033700
     32 H24         8.1710   -1.3210    4.8450 h1        1 SIL      0.092700
     33 H271        9.1760   -0.9300    2.0390 h1        1 SIL      0.062200
     34 H272        8.9660   -2.5200    2.9400 h1        1 SIL      0.062200
     35 H341       12.8410    0.1540    3.2270 hc        1 SIL      0.042867
     36 H342       12.2320    1.0490    4.6940 hc        1 SIL      0.042867
     37 H343       11.2520    1.0360    3.1650 hc        1 SIL      0.042867
     38 H381       11.5700   -2.5950    5.4970 hc        1 SIL      0.042867
     39 H382       13.0230   -1.9870    4.5890 hc        1 SIL      0.042867
     40 H383       12.4260   -1.0970    6.0650 hc        1 SIL      0.042867
@<TRIPOS>BOND
     1    1    2 2   
     2    1   19 1   
     3    1   20 1   
     4    2    3 1   
     5    2   21 1   
     6    3    4 1   
     7    3   22 1   
     8    3   23 1   
     9    4    5 1   
    10    4   24 1   
    11    4   25 1   
    12    5    6 1   
    13    5   26 1   
    14    5   27 1   
    15    6    7 1   
    16    6   28 1   
    17    6   29 1   
    18    7    8 1   
    19    7    9 1   
    20    7   18 1   
    21    9   10 1   
    22   10   11 1   
    23   10   30 1   
    24   10   31 1   
    25   11   12 1   
    26   11   13 1   
    27   11   32 1   
    28   12   15 1   
    29   12   33 1   
    30   12   34 1   
    31   13   14 1   
    32   14   15 1   
    33   14   16 1   
    34   14   17 1   
    35   16   35 1   
    36   16   36 1   
    37   16   37 1   
    38   17   38 1   
    39   17   39 1   
    40   17   40 1   
@<TRIPOS>SUBSTRUCTURE
     1 SIL         1 TEMP              0 ****  ****    0 ROOT
