@<TRIPOS>MOLECULE
SIM
   70    71     1     0     0
SMALL
bcc


@<TRIPOS>ATOM
      1 O1A         1.0990   -1.6130   -0.1870 o         1 SIM     -0.846300
      2 O1B         3.1390   -2.5140   -0.2840 o         1 SIM     -0.846300
      3 O3          0.4970   -0.0590    2.0280 oh        1 SIM     -0.675800
      4 O5         -0.0290    0.6110    4.7930 oh        1 SIM     -0.636800
      5 O14        -1.5900   -1.3600    8.4960 os        1 SIM     -0.421900
      6 O18        -3.5390   -2.0360    9.3670 o         1 SIM     -0.563000
      7 C1          2.2810   -1.7600    0.2500 c         1 SIM      0.909600
      8 C2          2.6960   -0.9600    1.4960 c3        1 SIM     -0.235400
      9 C3          1.5630   -0.8690    2.5060 c3        1 SIM      0.171100
     10 C4          2.0420   -0.2470    3.8180 c3        1 SIM     -0.122400
     11 C5          1.0010   -0.3640    4.9250 c3        1 SIM      0.154100
     12 C6          1.6380   -0.1510    6.2990 c3        1 SIM     -0.080400
     13 C7          0.6010   -0.3110    7.3900 c3        1 SIM     -0.073400
     14 C8          1.1740   -0.2610    8.7900 c3        1 SIM     -0.036700
     15 C9          2.0020    1.0140    9.0410 c3        1 SIM     -0.036500
     16 C10         2.4120    1.1380   10.4720 c2        1 SIM     -0.147200
     17 C11         1.8900    0.3980   11.4600 ce        1 SIM     -0.146000
     18 C12         0.8940   -0.6290   11.1770 ce        1 SIM     -0.077200
     19 C17         0.7820   -1.7380   11.9250 c2        1 SIM     -0.166200
     20 C16        -0.1070   -2.8820   11.5830 c3        1 SIM     -0.029500
     21 C15        -0.5290   -2.8220   10.1200 c3        1 SIM     -0.095400
     22 C14        -1.0070   -1.4110    9.8070 c3        1 SIM      0.154100
     23 C13         0.1220   -0.3790    9.9060 c3        1 SIM     -0.019500
     24 C9A         1.2940    2.2890    8.6200 c3        1 SIM     -0.089100
     25 C19        -3.3820   -1.6830    6.9150 c3        1 SIM     -0.082000
     26 C20        -4.8900   -1.9490    6.9250 c3        1 SIM     -0.075400
     27 C21        -5.4780   -2.1730    5.5570 c3        1 SIM     -0.092100
     28 C22        -3.0730   -0.3160    6.3240 c3        1 SIM     -0.094600
     29 C23        -2.6360   -2.7590    6.1390 c3        1 SIM     -0.094600
     30 C24         0.5690   -4.2030   11.8850 c3        1 SIM     -0.085100
     31 HO3         0.3110   -0.3530    1.1160 ho        1 SIM      0.465000
     32 HO5        -0.2580    0.6530    3.8530 ho        1 SIM      0.437000
     33 H21         3.5850   -1.4480    1.9660 hc        1 SIM      0.036700
     34 H22         2.9890    0.0670    1.1650 hc        1 SIM      0.036700
     35 H3          1.1590   -1.9040    2.7030 h1        1 SIM      0.028700
     36 H41         2.9790   -0.7720    4.1340 hc        1 SIM      0.049700
     37 H42         2.2800    0.8340    3.6480 hc        1 SIM      0.049700
     38 H5          0.5210   -1.3850    4.8880 h1        1 SIM      0.028700
     39 H61         2.4590   -0.9010    6.4340 hc        1 SIM      0.039200
     40 H62         2.0950    0.8710    6.3310 hc        1 SIM      0.039200
     41 H71        -0.1940    0.4710    7.2700 hc        1 SIM      0.059700
     42 H72         0.1100   -1.3120    7.2400 hc        1 SIM      0.059700
     43 H8          1.8790   -1.1370    8.8940 hc        1 SIM      0.046700
     44 H9          2.9410    0.9190    8.4200 hc        1 SIM      0.058700
     45 H10         3.1780    1.9020   10.6750 ha        1 SIM      0.118000
     46 H11         2.2160    0.5080   12.5050 ha        1 SIM      0.121000
     47 H17         1.3800   -1.8610   12.8420 ha        1 SIM      0.120000
     48 H16        -1.0360   -2.8030   12.2230 hc        1 SIM      0.057700
     49 H151        0.3290   -3.0910    9.4520 hc        1 SIM      0.057700
     50 H152       -1.3600   -3.5490    9.9300 hc        1 SIM      0.057700
     51 H14        -1.7990   -1.1230   10.5620 h1        1 SIM      0.065700
     52 H13        -0.3900    0.6250    9.9850 hc        1 SIM      0.064700
     53 H9A1        0.3270    2.4110    9.1650 hc        1 SIM      0.039700
     54 H9A2        1.9380    3.1730    8.8470 hc        1 SIM      0.039700
     55 H9A3        1.0800    2.2790    7.5240 hc        1 SIM      0.039700
     56 H201       -5.0900   -2.8490    7.5670 hc        1 SIM      0.049700
     57 H202       -5.3970   -1.0760    7.4160 hc        1 SIM      0.049700
     58 H211       -6.5880   -2.2780    5.6380 hc        1 SIM      0.035700
     59 H212       -5.2560   -1.3170    4.8750 hc        1 SIM      0.035700
     60 H213       -5.0710   -3.1050    5.0960 hc        1 SIM      0.035700
     61 H221       -1.9650   -0.1570    6.2710 hc        1 SIM      0.052867
     62 H222       -3.4860   -0.2470    5.2890 hc        1 SIM      0.052867
     63 H223       -3.5270    0.4910    6.9470 hc        1 SIM      0.052867
     64 H231       -2.9290   -3.7750    6.4960 hc        1 SIM      0.052867
     65 H232       -2.8760   -2.6740    5.0510 hc        1 SIM      0.052867
     66 H233       -1.5330   -2.6280    6.2680 hc        1 SIM      0.052867
     67 H241        0.8210   -4.2730   12.9700 hc        1 SIM      0.034700
     68 H242       -0.1100   -5.0490   11.6200 hc        1 SIM      0.034700
     69 H243        1.5110   -4.3070   11.2950 hc        1 SIM      0.034700
     70 C18        -2.9020   -1.7210    8.3590 c         1 SIM      0.635100
@<TRIPOS>BOND
     1    1    7 1   
     2    2    7 1   
     3    3    9 1   
     4    3   31 1   
     5    4   11 1   
     6    4   32 1   
     7    5   22 1   
     8    5   70 1   
     9    6   70 2   
    10    7    8 1   
    11    8    9 1   
    12    8   33 1   
    13    8   34 1   
    14    9   10 1   
    15    9   35 1   
    16   10   11 1   
    17   10   36 1   
    18   10   37 1   
    19   11   12 1   
    20   11   38 1   
    21   12   13 1   
    22   12   39 1   
    23   12   40 1   
    24   13   14 1   
    25   13   41 1   
    26   13   42 1   
    27   14   15 1   
    28   14   23 1   
    29   14   43 1   
    30   15   16 1   
    31   15   24 1   
    32   15   44 1   
    33   16   17 2   
    34   16   45 1   
    35   17   18 1   
    36   17   46 1   
    37   18   19 2   
    38   18   23 1   
    39   19   20 1   
    40   19   47 1   
    41   20   21 1   
    42   20   30 1   
    43   20   48 1   
    44   21   22 1   
    45   21   49 1   
    46   21   50 1   
    47   22   23 1   
    48   22   51 1   
    49   23   52 1   
    50   24   53 1   
    51   24   54 1   
    52   24   55 1   
    53   25   26 1   
    54   25   28 1   
    55   25   29 1   
    56   25   70 1   
    57   26   27 1   
    58   26   56 1   
    59   26   57 1   
    60   27   58 1   
    61   27   59 1   
    62   27   60 1   
    63   28   61 1   
    64   28   62 1   
    65   28   63 1   
    66   29   64 1   
    67   29   65 1   
    68   29   66 1   
    69   30   67 1   
    70   30   68 1   
    71   30   69 1   
@<TRIPOS>SUBSTRUCTURE
     1 SIM         1 TEMP              0 ****  ****    0 ROOT
