@<TRIPOS>MOLECULE
molecule
   70    71     1     0     0
SMALL
bcc


@<TRIPOS>ATOM
      1 O1A          0.0000     0.0000     0.0000 o          1 SIM      -0.843800
      2 O1B          1.8790    -0.0010    -1.1630 o          1 SIM      -0.843800
      3 O3           0.2250     1.2220     2.4590 oh         1 SIM      -0.619800
      4 O5          -0.0230     0.9600     5.0530 oh         1 SIM      -0.608800
      5 O14         -1.1850    -1.6060     8.4800 os         1 SIM      -0.399900
      6 O18         -3.3420    -1.8010     8.9210 o          1 SIM      -0.565000
      7 C1           1.2080     0.0000     0.0000 c          1 SIM       0.881600
      8 C2           1.9620     0.0000     1.3050 c3         1 SIM      -0.227400
      9 C3           0.9680     0.0010     2.4680 c3         1 SIM       0.166100
     10 C4           1.7290    -0.1240     3.7890 c3         1 SIM      -0.140400
     11 C5           0.7310    -0.2490     4.9420 c3         1 SIM       0.153100
     12 C6           1.4900    -0.4990     6.2470 c3         1 SIM      -0.124400
     13 C7           0.4920    -0.6290     7.4000 c3         1 SIM      -0.080400
     14 C8           1.2520    -0.7200     8.7250 c3         1 SIM      -0.047700
     15 C9           2.4290     0.2570     8.7080 c3         1 SIM      -0.039500
     16 C10          3.0510     0.3990    10.0640 c2         1 SIM      -0.146200
     17 C11          2.4510     0.0720    11.1950 ce         1 SIM      -0.148000
     18 C12          1.0810    -0.4920    11.1620 ce         1 SIM      -0.070200
     19 C17          0.6000    -1.0880    12.2360 c2         1 SIM      -0.174200
     20 C16         -0.7670    -1.7240    12.2200 c3         1 SIM      -0.033500
     21 C15         -1.0070    -2.2720    10.8060 c3         1 SIM      -0.096400
     22 C14         -0.9850    -1.0990     9.8260 c3         1 SIM       0.153100
     23 C13          0.3190    -0.3430     9.8780 c3         1 SIM      -0.024500
     24 C9A          1.9340     1.6280     8.2420 c3         1 SIM      -0.097100
     25 C19         -2.7470    -2.2820     6.6920 c3         1 SIM      -0.112000
     26 C20         -4.1300    -2.9350     6.6280 c3         1 SIM      -0.064400
     27 C21         -4.4350    -3.3440     5.1860 c3         1 SIM      -0.097100
     28 C22         -2.7270    -1.0430     5.7950 c3         1 SIM      -0.088100
     29 C23         -1.6900    -3.2780     6.2100 c3         1 SIM      -0.088100
     30 C24         -0.8190    -2.8670    13.2350 c3         1 SIM      -0.082100
     31 HO3          0.4960     1.7490     1.7260 ho         1 SIM       0.417000
     32 HO5          0.4700     1.6730     4.6820 ho         1 SIM       0.414000
     33 H21          2.5840    -0.8850     1.3620 hc         1 SIM       0.037700
     34 H22          2.5850     0.8840     1.3620 hc         1 SIM       0.037700
     35 H3           0.2880    -0.8360     2.3630 h1         1 SIM       0.066700
     36 H41          2.3430     0.7560     3.9370 hc         1 SIM       0.041200
     37 H42          2.3610    -1.0040     3.7610 hc         1 SIM       0.041200
     38 H5           0.0600    -1.0770     4.7500 h1         1 SIM       0.062700
     39 H61          2.1590     0.3310     6.4410 hc         1 SIM       0.040700
     40 H62          2.0640    -1.4130     6.1620 hc         1 SIM       0.040700
     41 H71         -0.1580     0.2370     7.4150 hc         1 SIM       0.073700
     42 H72         -0.1020    -1.5250     7.2630 hc         1 SIM       0.073700
     43 H8           1.6200    -1.7280     8.8710 hc         1 SIM       0.054700
     44 H9           3.1780    -0.1070     8.0160 hc         1 SIM       0.061700
     45 H10          4.0580     0.7960    10.1210 ha         1 SIM       0.114000
     46 H11          2.9950     0.1190    12.1310 ha         1 SIM       0.123000
     47 H17          1.1940    -1.1220    13.1410 ha         1 SIM       0.122000
     48 H16         -1.5180    -0.9810    12.4570 hc         1 SIM       0.061700
     49 H151        -0.2240    -2.9750    10.5490 hc         1 SIM       0.059200
     50 H152        -1.9730    -2.7620    10.7650 hc         1 SIM       0.059200
     51 H14         -1.7930    -0.4210    10.0750 h1         1 SIM       0.063700
     52 H13          0.0820     0.7080     9.7670 hc         1 SIM       0.066700
     53 H9A1         0.9610     1.5210     7.7780 hc         1 SIM       0.042700
     54 H9A2         2.6340     2.0390     7.5240 hc         1 SIM       0.042700
     55 H9A3         1.8580     2.2930     9.0930 hc         1 SIM       0.042700
     56 H201        -4.8780    -2.2300     6.9700 hc         1 SIM       0.049200
     57 H202        -4.1440    -3.8120     7.2630 hc         1 SIM       0.049200
     58 H211        -5.4840    -3.5990     5.0980 hc         1 SIM       0.037700
     59 H212        -4.2060    -2.5200     4.5210 hc         1 SIM       0.037700
     60 H213        -3.8310    -4.2020     4.9190 hc         1 SIM       0.037700
     61 H221        -2.2040    -1.2720     4.8740 hc         1 SIM       0.050533
     62 H222        -2.2190    -0.2340     6.3060 hc         1 SIM       0.050533
     63 H223        -3.7430    -0.7440     5.5680 hc         1 SIM       0.050533
     64 H231        -1.7550    -3.3800     5.1330 hc         1 SIM       0.050533
     65 H232        -0.7050    -2.9170     6.4790 hc         1 SIM       0.050533
     66 H233        -1.8620    -4.2400     6.6760 hc         1 SIM       0.050533
     67 H241        -1.7950    -3.3370    13.2000 hc         1 SIM       0.033367
     68 H242        -0.6420    -2.4760    14.2300 hc         1 SIM       0.033367
     69 H243        -0.0570    -3.5990    12.9950 hc         1 SIM       0.033367
     70 C18         -2.4470    -1.8790     8.1120 c          1 SIM       0.628100
@<TRIPOS>BOND
     1     1     7 1
     2     2     7 1
     3     3     9 1
     4     3    31 1
     5     4    11 1
     6     4    32 1
     7     5    22 1
     8     5    70 1
     9     6    70 2
    10     7     8 1
    11     8     9 1
    12     8    33 1
    13     8    34 1
    14     9    10 1
    15     9    35 1
    16    10    11 1
    17    10    36 1
    18    10    37 1
    19    11    12 1
    20    11    38 1
    21    12    13 1
    22    12    39 1
    23    12    40 1
    24    13    14 1
    25    13    41 1
    26    13    42 1
    27    14    15 1
    28    14    23 1
    29    14    43 1
    30    15    16 1
    31    15    24 1
    32    15    44 1
    33    16    17 2
    34    16    45 1
    35    17    18 1
    36    17    46 1
    37    18    19 2
    38    18    23 1
    39    19    20 1
    40    19    47 1
    41    20    21 1
    42    20    30 1
    43    20    48 1
    44    21    22 1
    45    21    49 1
    46    21    50 1
    47    22    23 1
    48    22    51 1
    49    23    52 1
    50    24    53 1
    51    24    54 1
    52    24    55 1
    53    70    25 1
    54    25    26 1
    55    25    28 1
    56    25    29 1
    57    26    27 1
    58    26    56 1
    59    26    57 1
    60    27    58 1
    61    27    59 1
    62    27    60 1
    63    28    61 1
    64    28    62 1
    65    28    63 1
    66    29    64 1
    67    29    65 1
    68    29    66 1
    69    30    67 1
    70    30    68 1
    71    30    69 1
@<TRIPOS>SUBSTRUCTURE
     1 SIM         1 TEMP              0 ****  ****    0 ROOT
