@<TRIPOS>MOLECULE
molecule
   12    11     1     0     0
SMALL
bcc


@<TRIPOS>ATOM
      1 C1           0.0000     0.0000     0.0000 c          1 SIN       0.885600
      2 O1           1.2090     0.0000     0.0000 o          1 SIN      -0.893800
      3 O2          -0.6710     0.0000     1.1630 o          1 SIN      -0.893800
      4 C2          -0.7530     0.0060    -1.3050 c3         1 SIN      -0.159400
      5 C3           0.2410     0.0110    -2.4670 c3         1 SIN      -0.159400
      6 C4          -0.5130     0.0170    -3.7720 c          1 SIN       0.885600
      7 O3          -1.7210     0.0170    -3.7720 o          1 SIN      -0.893800
      8 O4           0.1590     0.0230    -4.9360 o          1 SIN      -0.893800
      9 H21         -1.3760    -0.8790    -1.3670 hc         1 SIN       0.030700
     10 H22         -1.3770     0.8900    -1.3580 hc         1 SIN       0.030700
     11 H31          0.8640    -0.8730    -2.4140 hc         1 SIN       0.030700
     12 H32          0.8630     0.8960    -2.4060 hc         1 SIN       0.030700
@<TRIPOS>BOND
     1     1     2 1
     2     1     3 1
     3     1     4 1
     4     4     5 1
     5     4     9 1
     6     4    10 1
     7     5     6 1
     8     5    11 1
     9     5    12 1
    10     6     7 1
    11     6     8 1
@<TRIPOS>SUBSTRUCTURE
     1 SIN         1 TEMP              0 ****  ****    0 ROOT
