@<TRIPOS>MOLECULE
SIN
   12    11     1     0     0
SMALL
bcc


@<TRIPOS>ATOM
      1 C1          0.0160    0.0260    0.0530 c         1 SIN      0.896600
      2 O1          0.9260    0.8850    0.2700 o         1 SIN     -0.891300
      3 O2         -0.3350   -0.8000    0.9570 o         1 SIN     -0.891300
      4 C2         -0.7170   -0.0060   -1.2880 c3        1 SIN     -0.156400
      5 C3          0.2040   -0.0190   -2.4840 c3        1 SIN     -0.156400
      6 C4         -0.5290    0.0190   -3.8250 c         1 SIN      0.896600
      7 O3         -1.4190    0.8970   -4.0490 o         1 SIN     -0.891300
      8 O4         -0.1970   -0.8230   -4.7230 o         1 SIN     -0.891300
      9 H21        -1.3810   -0.9080   -1.3140 hc        1 SIN      0.021200
     10 H22        -1.3750    0.8990   -1.3480 hc        1 SIN      0.021200
     11 H31         0.8800    0.8730   -2.4300 hc        1 SIN      0.021200
     12 H32         0.8500   -0.9340   -2.4520 hc        1 SIN      0.021200
@<TRIPOS>BOND
     1    1    2 1   
     2    1    3 1   
     3    1    4 1   
     4    4    5 1   
     5    4    9 1   
     6    4   10 1   
     7    5    6 1   
     8    5   11 1   
     9    5   12 1   
    10    6    7 1   
    11    6    8 1   
@<TRIPOS>SUBSTRUCTURE
     1 SIN         1 TEMP              0 ****  ****    0 ROOT
