@<TRIPOS>MOLECULE
SIX
   64    68     1     0     0
SMALL
bcc


@<TRIPOS>ATOM
      1 O            0.0000     0.0000     0.0000 o          1 SIX      -0.635100
      2 C7           1.2130     0.0000     0.0000 c          1 SIX       0.569100
      3 N            1.8860     0.0000     1.1670 ns         1 SIX      -0.202900
      4 C8           1.1550     0.0010     2.4360 c3         1 SIX       0.047000
      5 C9           2.1490     0.0010     3.5980 c3         1 SIX       0.069900
      6 C10          1.3950     0.0010     4.9040 cc         1 SIX      -0.327600
      7 C12          0.9920     1.0940     5.5910 cd         1 SIX      -0.257300
      8 N2           0.3490     0.6710     6.6980 na         1 SIX       0.454400
      9 N1           0.3560    -0.7290     6.6920 nd         1 SIX      -0.661800
     10 C11          0.9830    -1.1310     5.6170 cc         1 SIX       0.407200
     11 C6           1.9660    -0.0060    -1.3060 c3         1 SIX      -0.035100
     12 C5           0.9870    -0.0120    -2.4500 ca         1 SIX      -0.095300
     13 C            0.3740    -1.1940    -2.8320 ca         1 SIX       0.125900
     14 F            0.6530    -2.3420    -2.1780 f          1 SIX      -0.127900
     15 C4           0.6960     1.1640    -3.1170 ca         1 SIX      -0.068000
     16 C3          -0.2040     1.1590    -4.1670 ca         1 SIX      -0.102300
     17 C2          -0.8120    -0.0210    -4.5520 ca         1 SIX      -0.072000
     18 C1          -0.5260    -1.1970    -3.8840 ca         1 SIX      -0.124000
     19 C13         -0.5200     2.4410    -4.8920 c3         1 SIX       0.014600
     20 C17         -0.1550     2.2960    -6.3730 c3         1 SIX      -0.055700
     21 C16         -0.5350     3.5790    -7.1150 c3         1 SIX       0.146800
     22 N3          -1.9760     3.8210    -6.9690 n7         1 SIX      -0.578200
     23 C15         -2.3430     4.0110    -5.5610 c3         1 SIX       0.145800
     24 C14         -2.0170     2.7410    -4.7720 c3         1 SIX      -0.022400
     25 C18          1.3500     2.0560    -6.5050 c3         1 SIX       0.196400
     26 O1           1.6740     1.8040    -7.8740 os         1 SIX      -0.301900
     27 C19          2.9810     1.5700    -8.1670 ca         1 SIX       0.159100
     28 C25          3.3650     1.3250    -9.4770 ca         1 SIX      -0.133000
     29 C24          4.6960     1.0850    -9.7750 ca         1 SIX       0.098100
     30 O3           5.3250     0.8220   -10.9580 os         1 SIX      -0.314900
     31 C23          6.7210     1.0720   -10.7150 c3         1 SIX       0.431200
     32 O2           6.8720     0.8320    -9.3040 os         1 SIX      -0.314900
     33 C22          5.6470     1.0920    -8.7580 ca         1 SIX       0.011100
     34 C21          5.2580     1.3360    -7.4510 ca         1 SIX      -0.042000
     35 C20          3.9300     1.5810    -7.1570 ca         1 SIX      -0.216000
     36 H1           2.8870     0.0020     1.1680 hn         1 SIX       0.171500
     37 H2           0.5320     0.8860     2.4930 h1         1 SIX       0.030200
     38 H3           0.5310    -0.8830     2.4940 h1         1 SIX       0.030200
     39 H4           2.7720    -0.8830     3.5410 hc         1 SIX       0.013700
     40 H5           2.7710     0.8860     3.5410 hc         1 SIX       0.013700
     41 H6           1.1570     2.1260     5.3030 h4         1 SIX       0.145000
     42 H7          -0.0610     1.2550     7.4000 hn         1 SIX       0.147700
     43 H8           1.1540    -2.1610     5.3280 h4         1 SIX       0.006100
     44 H9           2.5890    -0.8910    -1.3590 hc         1 SIX       0.033700
     45 H10          2.5890     0.8780    -1.3670 hc         1 SIX       0.033700
     46 H11          1.1720     2.0890    -2.8150 ha         1 SIX       0.108000
     47 H12         -1.5160    -0.0230    -5.3750 ha         1 SIX       0.118000
     48 H13         -1.0040    -2.1210    -4.1850 ha         1 SIX       0.120000
     49 H14          0.0460     3.2570    -4.4600 hc         1 SIX       0.029700
     50 H15         -0.6980     1.4600    -6.7970 hc         1 SIX       0.056700
     51 H16         -0.2930     3.4710    -8.1660 h1         1 SIX       0.013200
     52 H17          0.0150     4.4130    -6.6960 h1         1 SIX       0.013200
     53 H18         -2.2320     4.6350    -7.4930 hn         1 SIX       0.252800
     54 H20         -1.7820     4.8420    -5.1520 h1         1 SIX       0.005700
     55 H21         -3.4040     4.2150    -5.4910 h1         1 SIX       0.005700
     56 H22         -2.5840     1.9100    -5.1750 hc         1 SIX       0.028700
     57 H23         -2.2720     2.8880    -3.7290 hc         1 SIX       0.028700
     58 H24          1.8870     2.9320    -6.1620 h1         1 SIX       0.009200
     59 H25          1.6340     1.2010    -5.9040 h1         1 SIX       0.009200
     60 H26          2.6200     1.2940   -10.2620 ha         1 SIX       0.126000
     61 H27          7.3240     0.3670   -11.2750 h2         1 SIX       0.013200
     62 H28          6.9540     2.1070   -10.9390 h2         1 SIX       0.013200
     63 H29          5.9980     1.3450    -6.6590 ha         1 SIX       0.109000
     64 H30          3.6310     1.7850    -6.1360 ha         1 SIX       0.125000
@<TRIPOS>BOND
     1     1     2 2   
     2     2     3 1   
     3     2    11 1   
     4     3     4 1   
     5     3    36 1   
     6     4     5 1   
     7     4    37 1   
     8     4    38 1   
     9     5     6 1   
    10     5    39 1   
    11     5    40 1   
    12     6     7 2   
    13     6    10 1   
    14     7     8 1   
    15     7    41 1   
    16     8     9 1   
    17     8    42 1   
    18     9    10 2   
    19    10    43 1   
    20    11    12 1   
    21    11    44 1   
    22    11    45 1   
    23    12    13 ar  
    24    12    15 ar  
    25    13    14 1   
    26    13    18 ar  
    27    15    16 ar  
    28    15    46 1   
    29    16    17 ar  
    30    16    19 1   
    31    17    18 ar  
    32    17    47 1   
    33    18    48 1   
    34    19    20 1   
    35    19    24 1   
    36    19    49 1   
    37    20    21 1   
    38    20    25 1   
    39    20    50 1   
    40    21    22 1   
    41    21    51 1   
    42    21    52 1   
    43    22    23 1   
    44    22    53 1   
    45    23    24 1   
    46    23    54 1   
    47    23    55 1   
    48    24    56 1   
    49    24    57 1   
    50    25    26 1   
    51    25    58 1   
    52    25    59 1   
    53    26    27 1   
    54    27    28 ar  
    55    27    35 ar  
    56    28    29 ar  
    57    28    60 1   
    58    29    30 1   
    59    29    33 ar  
    60    30    31 1   
    61    31    32 1   
    62    31    61 1   
    63    31    62 1   
    64    32    33 1   
    65    33    34 ar  
    66    34    35 ar  
    67    34    63 1   
    68    35    64 1   
@<TRIPOS>SUBSTRUCTURE
     1 SIX         1 TEMP              0 ****  ****    0 ROOT
