@<TRIPOS>MOLECULE
molecule
   64    68     1     0     0
SMALL
bcc


@<TRIPOS>ATOM
      1 O            0.0000     0.0000     0.0000 o          1 SIX      -0.594100
      2 C7           1.2130     0.0000     0.0000 c          1 SIX       0.657100
      3 N            1.8860     0.0000     1.1670 ns         1 SIX      -0.591900
      4 C8           1.1550     0.0010     2.4360 c3         1 SIX       0.114000
      5 C9           2.1490     0.0010     3.5980 c3         1 SIX      -0.014100
      6 C10          1.3950     0.0010     4.9040 cc         1 SIX      -0.313600
      7 C12          0.9920     1.0940     5.5910 cd         1 SIX      -0.106300
      8 N2           0.3490     0.6710     6.6980 na         1 SIX      -0.042600
      9 N1           0.3560    -0.7290     6.6920 nd         1 SIX      -0.507800
     10 C11          0.9830    -1.1310     5.6170 cc         1 SIX       0.343200
     11 C6           1.9660    -0.0060    -1.3060 c3         1 SIX      -0.108100
     12 C5           0.9870    -0.0120    -2.4500 ca         1 SIX      -0.102300
     13 C            0.3740    -1.1940    -2.8320 ca         1 SIX       0.154900
     14 F            0.6530    -2.3420    -2.1780 f          1 SIX      -0.137900
     15 C4           0.6960     1.1640    -3.1170 ca         1 SIX      -0.093000
     16 C3          -0.2040     1.1590    -4.1670 ca         1 SIX      -0.101300
     17 C2          -0.8120    -0.0210    -4.5520 ca         1 SIX      -0.094000
     18 C1          -0.5260    -1.1970    -3.8840 ca         1 SIX      -0.160000
     19 C13         -0.5200     2.4410    -4.8920 c3         1 SIX      -0.018400
     20 C17         -0.1550     2.2960    -6.3730 c3         1 SIX      -0.060700
     21 C16         -0.5350     3.5790    -7.1150 c3         1 SIX       0.161800
     22 N3          -1.9760     3.8210    -6.9690 n7         1 SIX      -0.818200
     23 C15         -2.3430     4.0110    -5.5610 c3         1 SIX       0.154800
     24 C14         -2.0170     2.7410    -4.7720 c3         1 SIX      -0.068400
     25 C18          1.3500     2.0560    -6.5050 c3         1 SIX       0.138400
     26 O1           1.6740     1.8040    -7.8740 os         1 SIX      -0.326900
     27 C19          2.9810     1.5700    -8.1670 ca         1 SIX       0.152100
     28 C25          3.3650     1.3250    -9.4770 ca         1 SIX      -0.148000
     29 C24          4.6960     1.0850    -9.7750 ca         1 SIX       0.087100
     30 O3           5.3250     0.8220   -10.9580 os         1 SIX      -0.324900
     31 C23          6.7210     1.0720   -10.7150 c3         1 SIX       0.332200
     32 O2           6.8720     0.8320    -9.3040 os         1 SIX      -0.327900
     33 C22          5.6470     1.0920    -8.7580 ca         1 SIX       0.008100
     34 C21          5.2580     1.3360    -7.4510 ca         1 SIX      -0.074000
     35 C20          3.9300     1.5810    -7.1570 ca         1 SIX      -0.223000
     36 H1           2.8870     0.0020     1.1680 hn         1 SIX       0.309500
     37 H2           0.5320     0.8860     2.4930 h1         1 SIX       0.057200
     38 H3           0.5310    -0.8830     2.4940 h1         1 SIX       0.057200
     39 H4           2.7720    -0.8830     3.5410 hc         1 SIX       0.047200
     40 H5           2.7710     0.8860     3.5410 hc         1 SIX       0.047200
     41 H6           1.1570     2.1260     5.3030 h4         1 SIX       0.170000
     42 H7          -0.0610     1.2550     7.4000 hn         1 SIX       0.330700
     43 H8           1.1540    -2.1610     5.3280 h4         1 SIX       0.051100
     44 H9           2.5890    -0.8910    -1.3590 hc         1 SIX       0.069200
     45 H10          2.5890     0.8780    -1.3670 hc         1 SIX       0.069200
     46 H11          1.1720     2.0890    -2.8150 ha         1 SIX       0.133000
     47 H12         -1.5160    -0.0230    -5.3750 ha         1 SIX       0.143000
     48 H13         -1.0040    -2.1210    -4.1850 ha         1 SIX       0.148000
     49 H14          0.0460     3.2570    -4.4600 hc         1 SIX       0.053700
     50 H15         -0.6980     1.4600    -6.7970 hc         1 SIX       0.082700
     51 H16         -0.2930     3.4710    -8.1660 h1         1 SIX       0.039700
     52 H17          0.0150     4.4130    -6.6960 h1         1 SIX       0.039700
     53 H18         -2.2320     4.6350    -7.4930 hn         1 SIX       0.356800
     54 H20         -1.7820     4.8420    -5.1520 h1         1 SIX       0.033200
     55 H21         -3.4040     4.2150    -5.4910 h1         1 SIX       0.033200
     56 H22         -2.5840     1.9100    -5.1750 hc         1 SIX       0.057700
     57 H23         -2.2720     2.8880    -3.7290 hc         1 SIX       0.057700
     58 H24          1.8870     2.9320    -6.1620 h1         1 SIX       0.041200
     59 H25          1.6340     1.2010    -5.9040 h1         1 SIX       0.041200
     60 H26          2.6200     1.2940   -10.2620 ha         1 SIX       0.158000
     61 H27          7.3240     0.3670   -11.2750 h2         1 SIX       0.070700
     62 H28          6.9540     2.1070   -10.9390 h2         1 SIX       0.070700
     63 H29          5.9980     1.3450    -6.6590 ha         1 SIX       0.143000
     64 H30          3.6310     1.7850    -6.1360 ha         1 SIX       0.143000
@<TRIPOS>BOND
     1     8     7 1
     2     8     9 1
     3    14    13 1
     4     7     6 2
     5     9    10 2
     6     1     2 2
     7     6    10 1
     8     6     5 1
     9     4     3 1
    10     4     5 1
    11     2     3 1
    12     2    11 1
    13    13    18 ar
    14    13    12 ar
    15    11    12 1
    16    18    17 ar
    17    12    15 ar
    18    17    16 ar
    19    15    16 ar
    20    16    19 1
    21    19    24 1
    22    19    20 1
    23    30    29 1
    24    30    31 1
    25    28    29 ar
    26    28    27 ar
    27    29    33 ar
    28    24    23 1
    29    31    32 1
    30    26    27 1
    31    26    25 1
    32    27    35 ar
    33    32    33 1
    34    33    34 ar
    35    25    20 1
    36    35    34 ar
    37    20    21 1
    38    23    22 1
    39    21    22 1
    40     3    36 1
    41     4    37 1
    42     4    38 1
    43     5    39 1
    44     5    40 1
    45     7    41 1
    46     8    42 1
    47    10    43 1
    48    11    44 1
    49    11    45 1
    50    15    46 1
    51    17    47 1
    52    18    48 1
    53    19    49 1
    54    20    50 1
    55    21    51 1
    56    21    52 1
    57    22    53 1
    58    23    54 1
    59    23    55 1
    60    24    56 1
    61    24    57 1
    62    25    58 1
    63    25    59 1
    64    28    60 1
    65    31    61 1
    66    31    62 1
    67    34    63 1
    68    35    64 1
@<TRIPOS>SUBSTRUCTURE
     1 SIX         1 TEMP              0 ****  ****    0 ROOT
