@<TRIPOS>MOLECULE
SJ1
   62    61     1     0     0
SMALL
bcc


@<TRIPOS>ATOM
      1 N1           0.0000     0.0000     0.0000 n2         1 SJ1      -0.594100
      2 C2           1.3040     0.0000     0.0000 c2         1 SJ1       0.260100
      3 N2           1.9910     0.0000     1.1910 nz         1 SJ1       0.117400
      4 N3           1.9910    -0.0020    -1.1910 nu         1 SJ1      -0.430200
      5 C3           3.4570    -0.0030    -1.1910 c3         1 SJ1       0.135800
      6 C4           3.9670    -0.0060    -2.6320 c3         1 SJ1      -0.031400
      7 C5           5.4970    -0.0060    -2.6320 c3         1 SJ1      -0.019400
      8 C6           6.0060    -0.0080    -4.0750 c3         1 SJ1      -0.107300
      9 C7           7.5090     0.1150    -4.0770 c          1 SJ1       0.635900
     10 O1           8.1850    -0.7550    -4.5730 o          1 SJ1      -0.518100
     11 N4           5.6190    -1.2610    -4.7290 ns         1 SJ1      -0.184900
     12 C8           5.4920    -1.3100    -6.0690 c          1 SJ1       0.578100
     13 O2           5.7000    -0.3180    -6.7350 o          1 SJ1      -0.639100
     14 C9           5.0930    -2.5990    -6.7410 c3         1 SJ1      -0.046300
     15 C10          6.1290    -3.6800    -6.4280 c3         1 SJ1      -0.016100
     16 N5           5.0250    -2.3920    -8.1910 ns         1 SJ1      -0.172900
     17 C11          4.2380    -3.1830    -8.9470 c          1 SJ1       0.582100
     18 O3           3.5870    -4.0650    -8.4290 o          1 SJ1      -0.654100
     19 C12          4.1680    -2.9710   -10.4380 c3         1 SJ1      -0.042300
     20 C13          5.5620    -3.1470   -11.0440 c3         1 SJ1       0.203400
     21 O4           6.0840    -4.4250   -10.6740 oh         1 SJ1      -0.596800
     22 N6           3.2520    -3.9500   -11.0270 ns         1 SJ1      -0.146900
     23 C14          2.6370    -3.6790   -12.1960 c          1 SJ1       0.685100
     24 O5           2.8420    -2.6230   -12.7600 o          1 SJ1      -0.676000
     25 O6           1.7950    -4.5790   -12.7380 os         1 SJ1      -0.427900
     26 C15          1.1320    -4.2860   -13.9960 c3         1 SJ1       0.251400
     27 C16          0.2370    -5.4650   -14.3880 c3         1 SJ1      -0.066700
     28 C17         -0.5550    -5.1080   -15.6470 c3         1 SJ1       0.009400
     29 C18          1.1060    -6.6950   -14.6630 c3         1 SJ1       0.009400
     30 H1          -0.5020     0.0010     0.8660 hn         1 SJ1       0.351400
     31 H2N1         2.5730     0.8120     1.2400 hn         1 SJ1       0.229800
     32 H2N2         2.5590    -0.8220     1.2490 hn         1 SJ1       0.229800
     33 H3           1.4910    -0.0050    -2.0580 hn         1 SJ1       0.354800
     34 H3C1         3.8170    -0.8870    -0.6790 h1         1 SJ1       0.013200
     35 H3C2         3.8180     0.8820    -0.6810 h1         1 SJ1       0.013200
     36 H4C1         3.6060     0.8780    -3.1450 hc         1 SJ1       0.040700
     37 H4C2         3.6050    -0.8910    -3.1420 hc         1 SJ1       0.040700
     38 H5C1         5.8580    -0.8900    -2.1200 hc         1 SJ1       0.026700
     39 H5C2         5.8580     0.8790    -2.1230 hc         1 SJ1       0.026700
     40 H6           5.5750     0.8280    -4.6120 h1         1 SJ1       0.080700
     41 H7           7.9800     1.0070    -3.6810 h4         1 SJ1      -0.025800
     42 H4           5.4730    -2.0860    -4.1820 hn         1 SJ1       0.180500
     43 H9           4.1220    -2.9110    -6.3750 h1         1 SJ1       0.058700
     44 H101         7.0880    -3.2160    -6.2350 hc         1 SJ1       0.022033
     45 H102         6.2160    -4.3530    -7.2730 hc         1 SJ1       0.022033
     46 H103         5.8150    -4.2370    -5.5530 hc         1 SJ1       0.022033
     47 H5           5.5290    -1.6380    -8.6130 hn         1 SJ1       0.203500
     48 H12          3.8080    -1.9700   -10.6440 h1         1 SJ1       0.072700
     49 H131         6.2180    -2.3690   -10.6730 h1         1 SJ1       0.005700
     50 H132         5.4970    -3.0820   -12.1230 h1         1 SJ1       0.005700
     51 HB           6.8870    -4.5840   -11.1410 ho         1 SJ1       0.401000
     52 HA           3.0700    -4.8140   -10.5550 hn         1 SJ1       0.204500
     53 H151         0.5270    -3.3940   -13.8870 h1         1 SJ1       0.011200
     54 H152         1.8760    -4.1260   -14.7670 h1         1 SJ1       0.011200
     55 H16         -0.4490    -5.6820   -13.5780 hc         1 SJ1       0.031700
     56 H171        -1.1880    -5.9420   -15.9240 hc         1 SJ1       0.005867
     57 H172        -1.1700    -4.2380   -15.4510 hc         1 SJ1       0.005867
     58 H173         0.1320    -4.8900   -16.4560 hc         1 SJ1       0.005867
     59 H181         1.9240    -6.4200   -15.3170 hc         1 SJ1       0.005867
     60 H182         1.5020    -7.0740   -13.7290 hc         1 SJ1       0.005867
     61 H183         0.5060    -7.4610   -15.1390 hc         1 SJ1       0.005867
     62 H23          1.3400     0.0170     1.9510 hn         1 SJ1       0.229800
@<TRIPOS>BOND
     1     1     2 2   
     2     1    30 1   
     3     2     3 1   
     4     2     4 1   
     5     3    31 1   
     6     3    32 1   
     7     3    62 1   
     8     4     5 1   
     9     4    33 1   
    10     5     6 1   
    11     5    34 1   
    12     5    35 1   
    13     6     7 1   
    14     6    36 1   
    15     6    37 1   
    16     7     8 1   
    17     7    38 1   
    18     7    39 1   
    19     8     9 1   
    20     8    11 1   
    21     8    40 1   
    22     9    10 2   
    23     9    41 1   
    24    11    12 1   
    25    11    42 1   
    26    12    13 2   
    27    12    14 1   
    28    14    15 1   
    29    14    16 1   
    30    14    43 1   
    31    15    44 1   
    32    15    45 1   
    33    15    46 1   
    34    16    17 1   
    35    16    47 1   
    36    17    18 2   
    37    17    19 1   
    38    19    20 1   
    39    19    22 1   
    40    19    48 1   
    41    20    21 1   
    42    20    49 1   
    43    20    50 1   
    44    21    51 1   
    45    22    23 1   
    46    22    52 1   
    47    23    24 2   
    48    23    25 1   
    49    25    26 1   
    50    26    27 1   
    51    26    53 1   
    52    26    54 1   
    53    27    28 1   
    54    27    29 1   
    55    27    55 1   
    56    28    56 1   
    57    28    57 1   
    58    28    58 1   
    59    29    59 1   
    60    29    60 1   
    61    29    61 1   
@<TRIPOS>SUBSTRUCTURE
     1 SJ1         1 TEMP              0 ****  ****    0 ROOT
