@<TRIPOS>MOLECULE
molecule
   62    61     1     0     0
SMALL
bcc


@<TRIPOS>ATOM
      1 N1           0.0000     0.0000     0.0000 n2         1 SJ1      -0.807100
      2 C2           1.3040     0.0000     0.0000 c2         1 SJ1       0.677100
      3 N2           1.9910     0.0000     1.1910 nz         1 SJ1      -0.740600
      4 N3           1.9910    -0.0020    -1.1910 nu         1 SJ1      -0.913200
      5 C3           3.4570    -0.0030    -1.1910 c3         1 SJ1       0.196800
      6 C4           3.9670    -0.0060    -2.6320 c3         1 SJ1      -0.090400
      7 C5           5.4970    -0.0060    -2.6320 c3         1 SJ1      -0.086400
      8 C6           6.0060    -0.0080    -4.0750 c3         1 SJ1       0.000700
      9 C7           7.5090     0.1150    -4.0770 c          1 SJ1       0.548900
     10 O1           8.1850    -0.7550    -4.5730 o          1 SJ1      -0.479100
     11 N4           5.6190    -1.2610    -4.7290 ns         1 SJ1      -0.579900
     12 C8           5.4920    -1.3100    -6.0690 c          1 SJ1       0.659100
     13 O2           5.7000    -0.3180    -6.7350 o          1 SJ1      -0.601100
     14 C9           5.0930    -2.5990    -6.7410 c3         1 SJ1       0.051700
     15 C10          6.1290    -3.6800    -6.4280 c3         1 SJ1      -0.110100
     16 N5           5.0250    -2.3920    -8.1910 ns         1 SJ1      -0.569900
     17 C11          4.2380    -3.1830    -8.9470 c          1 SJ1       0.668100
     18 O3           3.5870    -4.0650    -8.4290 o          1 SJ1      -0.609100
     19 C12          4.1680    -2.9710   -10.4380 c3         1 SJ1       0.076700
     20 C13          5.5620    -3.1470   -11.0440 c3         1 SJ1       0.122400
     21 O4           6.0840    -4.4250   -10.6740 oh         1 SJ1      -0.609800
     22 N6           3.2520    -3.9500   -11.0270 ns         1 SJ1      -0.554900
     23 C14          2.6370    -3.6790   -12.1960 c          1 SJ1       0.760100
     24 O5           2.8420    -2.6230   -12.7600 o          1 SJ1      -0.626000
     25 O6           1.7950    -4.5790   -12.7380 os         1 SJ1      -0.445900
     26 C15          1.1320    -4.2860   -13.9960 c3         1 SJ1       0.178400
     27 C16          0.2370    -5.4650   -14.3880 c3         1 SJ1      -0.080700
     28 C17         -0.5550    -5.1080   -15.6470 c3         1 SJ1      -0.087100
     29 C18          1.1060    -6.6950   -14.6630 c3         1 SJ1      -0.087100
     30 H1          -0.5010    -0.0010    -0.8660 hn         1 SJ1       0.478400
     31 H2N1         2.5550    -0.8250     1.2510 hn         1 SJ1       0.480133
     32 H2N2         2.5780     0.8090     1.2380 hn         1 SJ1       0.480133
     33 H3           1.4910     0.0000    -2.0580 hn         1 SJ1       0.495800
     34 H3C1         3.8170    -0.8870    -0.6790 h1         1 SJ1       0.039200
     35 H3C2         3.8180     0.8820    -0.6810 h1         1 SJ1       0.039200
     36 H4C1         3.6050    -0.8910    -3.1420 hc         1 SJ1       0.072200
     37 H4C2         3.6060     0.8780    -3.1450 hc         1 SJ1       0.072200
     38 H5C1         5.8580    -0.8900    -2.1200 hc         1 SJ1       0.057700
     39 H5C2         5.8580     0.8790    -2.1230 hc         1 SJ1       0.057700
     40 H6           5.5750     0.8280    -4.6120 h1         1 SJ1       0.105700
     41 H7           7.9800     1.0060    -3.6790 h4         1 SJ1       0.011200
     42 H4           5.4650    -2.0840    -4.1810 hn         1 SJ1       0.320500
     43 H9           4.1220    -2.9110    -6.3750 h1         1 SJ1       0.085700
     44 H101         7.0880    -3.2160    -6.2350 hc         1 SJ1       0.056700
     45 H102         6.2160    -4.3530    -7.2730 hc         1 SJ1       0.056700
     46 H103         5.8150    -4.2370    -5.5530 hc         1 SJ1       0.056700
     47 H5           5.5350    -1.6430    -8.6140 hn         1 SJ1       0.340500
     48 H12          3.8080    -1.9700   -10.6440 h1         1 SJ1       0.103700
     49 H131         5.4970    -3.0820   -12.1230 h1         1 SJ1       0.042200
     50 H132         6.2180    -2.3690   -10.6730 h1         1 SJ1       0.042200
     51 HB           6.8820    -4.5880   -11.1480 ho         1 SJ1       0.412000
     52 HA           3.0680    -4.8120   -10.5530 hn         1 SJ1       0.352500
     53 H151         0.5270    -3.3940   -13.8870 h1         1 SJ1       0.049700
     54 H152         1.8760    -4.1260   -14.7670 h1         1 SJ1       0.049700
     55 H16         -0.4490    -5.6820   -13.5780 hc         1 SJ1       0.060700
     56 H171        -1.1950    -5.9390   -15.9190 hc         1 SJ1       0.039700
     57 H172        -1.1630    -4.2320   -15.4540 hc         1 SJ1       0.039700
     58 H173         0.1320    -4.9000   -16.4580 hc         1 SJ1       0.039700
     59 H181         1.9270    -6.4180   -15.3130 hc         1 SJ1       0.039700
     60 H182         0.5070    -7.4590   -15.1430 hc         1 SJ1       0.039700
     61 H183         1.4980    -7.0770   -13.7290 hc         1 SJ1       0.039700
     62 H23          1.3400     0.0180     1.9510 hn         1 SJ1       0.480133
@<TRIPOS>BOND
     1     1     2 2
     2     1    30 1
     3     2     3 1
     4     2     4 1
     5     3    31 1
     6     3    32 1
     7     4     5 1
     8     4    33 1
     9     5     6 1
    10     5    34 1
    11     5    35 1
    12     6     7 1
    13     6    36 1
    14     6    37 1
    15     7     8 1
    16     7    38 1
    17     7    39 1
    18     8     9 1
    19     8    11 1
    20     8    40 1
    21     9    10 2
    22     9    41 1
    23    11    12 1
    24    11    42 1
    25    12    13 2
    26    12    14 1
    27    14    15 1
    28    14    16 1
    29    14    43 1
    30    15    44 1
    31    15    45 1
    32    15    46 1
    33    16    17 1
    34    16    47 1
    35    17    18 2
    36    17    19 1
    37    19    20 1
    38    19    22 1
    39    19    48 1
    40    20    21 1
    41    20    49 1
    42    20    50 1
    43    21    51 1
    44    22    23 1
    45    22    52 1
    46    23    24 2
    47    23    25 1
    48    25    26 1
    49    26    27 1
    50    26    53 1
    51    26    54 1
    52    27    28 1
    53    27    29 1
    54    27    55 1
    55    28    56 1
    56    28    57 1
    57    28    58 1
    58    29    59 1
    59    29    60 1
    60    29    61 1
    61    62     3 1
@<TRIPOS>SUBSTRUCTURE
     1 SJ1         1 TEMP              0 ****  ****    0 ROOT
