@<TRIPOS>MOLECULE
SJ5
   21    21     1     0     0
SMALL
bcc


@<TRIPOS>ATOM
      1 C2           0.0000     0.0000     0.0000 c3         1 SJ5       0.126800
      2 C3           1.5310     0.0000     0.0000 c3         1 SJ5       0.149100
      3 O3           2.0080     1.1660    -0.6740 oh         1 SJ5      -0.597800
      4 N           -0.4900    -1.1880     0.7110 n7         1 SJ5      -0.593200
      5 C7          -0.0560    -1.1850     2.1130 c3         1 SJ5       0.161800
      6 C5           1.4720    -1.2210     2.1760 c3         1 SJ5      -0.161700
      7 C6           1.9170    -1.1970     3.6150 c          1 SJ5       0.991600
      8 O62          1.5360    -2.1760     4.4520 o          1 SJ5      -0.897800
      9 C4           2.0370     0.0000     1.4460 c3         1 SJ5       0.203100
     10 O4           3.4640    -0.0580     1.4520 oh         1 SJ5      -0.571800
     11 O61          2.6170    -0.2980     4.0170 o          1 SJ5      -0.897800
     12 H1          -0.3600    -0.0180    -1.0220 h1         1 SJ5      -0.003800
     13 H2          -0.3600     0.8920     0.4990 h1         1 SJ5      -0.003800
     14 H3           1.8900    -0.8880    -0.5060 h1         1 SJ5       0.013700
     15 H4           2.3080     0.9300    -1.5360 ho         1 SJ5       0.375000
     16 H5          -1.4900    -1.2110     0.6710 hn         1 SJ5       0.232800
     17 H7          -0.4150    -0.2860     2.5990 h1         1 SJ5       0.015700
     18 H8          -0.4570    -2.0570     2.6150 h1         1 SJ5       0.015700
     19 H9           1.8300    -2.1240     1.6970 hc         1 SJ5       0.040700
     20 H11          1.7040     0.9030     1.9430 h1         1 SJ5       0.016700
     21 H12          3.8130     0.8080     1.5850 ho         1 SJ5       0.382000
@<TRIPOS>BOND
     1     1     2 1   
     2     1     4 1   
     3     1    12 1   
     4     1    13 1   
     5     2     3 1   
     6     2     9 1   
     7     2    14 1   
     8     3    15 1   
     9     4     5 1   
    10     4    16 1   
    11     5     6 1   
    12     5    17 1   
    13     5    18 1   
    14     6     7 1   
    15     6     9 1   
    16     6    19 1   
    17     7     8 1   
    18     7    11 1   
    19     9    10 1   
    20     9    20 1   
    21    10    21 1   
@<TRIPOS>SUBSTRUCTURE
     1 SJ5         1 TEMP              0 ****  ****    0 ROOT
