@<TRIPOS>MOLECULE
SJJ
   39    41     1     0     0
SMALL
bcc


@<TRIPOS>ATOM
      1 C5          0.0840    0.5130    0.0930 ca        1 SJJ     -0.017500
      2 C7          0.4140   -0.4150    2.3180 ca        1 SJJ     -0.017500
      3 C4          1.4410    0.7310   -0.0300 ca        1 SJJ     -0.201500
      4 C8          1.7800   -0.1950    2.2100 ca        1 SJJ     -0.201500
      5 C19        -5.2280   -5.5030    4.4170 ca        1 SJJ     -0.226800
      6 C23        -5.3180   -4.0800    6.3640 ca        1 SJJ     -0.226800
      7 C20        -6.3790   -6.1510    4.9030 ca        1 SJJ      0.416200
      8 C22        -6.4650   -4.7950    6.7630 ca        1 SJJ      0.416200
      9 C11        -3.9850    0.0890    0.6840 cc        1 SJJ      0.544300
     10 C6         -0.4560   -0.0750    1.2650 ca        1 SJJ     -0.275500
     11 C18        -4.6940   -4.4490    5.1670 ca        1 SJJ     -0.136300
     12 C3          2.3030    0.3740    1.0350 ca        1 SJJ      0.212100
     13 C9         -1.8660   -0.2820    1.3470 cc        1 SJJ      0.474900
     14 C13        -2.7770   -1.0700    2.0990 cd        1 SJJ      0.040500
     15 C14        -2.5160   -2.0360    3.1290 c         1 SJJ      0.511600
     16 C1          4.5370    0.2920    1.8640 c3        1 SJJ      0.104700
     17 C17        -3.4520   -3.7560    4.7160 c3        1 SJJ      0.166100
     18 N21        -6.9930   -5.8080    6.0520 nb        1 SJJ     -0.618000
     19 N12        -4.1010   -0.7960    1.6480 nd        1 SJJ     -0.689000
     20 N16        -3.7550   -2.7440    3.6570 n4        1 SJJ     -0.661800
     21 O15        -1.4530   -2.3770    3.6380 o         1 SJJ     -0.469100
     22 O10        -2.6420    0.4480    0.4460 os        1 SJJ     -0.376800
     23 O2          3.6250    0.6280    0.8160 os        1 SJJ     -0.299900
     24 H5         -0.5920    0.7960   -0.7310 ha        1 SJJ      0.157000
     25 H4          1.8690    1.1800   -0.9400 ha        1 SJJ      0.169000
     26 H7          0.0190   -0.8470    3.2510 ha        1 SJJ      0.157000
     27 H8          2.4420   -0.4660    3.0460 ha        1 SJJ      0.169000
     28 H23        -4.9250   -3.2700    6.9930 ha        1 SJJ      0.151500
     29 H22        -6.9870   -4.5430    7.7070 h4        1 SJJ      0.049600
     30 H11        -4.7270    0.5880    0.0500 h5        1 SJJ      0.122100
     31 H171       -2.7150   -4.4950    4.2860 hx        1 SJJ      0.117200
     32 H172       -2.9480   -3.2200    5.5730 hx        1 SJJ      0.117200
     33 H16        -4.2300   -3.2050    2.8710 hn        1 SJJ      0.466300
     34 H11C        4.3030    0.8780    2.7860 h1        1 SJJ      0.062033
     35 H12C        4.5090   -0.8050    2.0680 h1        1 SJJ      0.062033
     36 H13C        5.5290    0.5950    1.4400 h1        1 SJJ      0.062033
     37 H19        -4.7570   -5.8400    3.4830 ha        1 SJJ      0.151500
     38 H162       -4.3990   -2.0360    4.0320 hn        1 SJJ      0.466300
     39 H20        -6.8330   -6.9940    4.3460 h4        1 SJJ      0.049600
@<TRIPOS>BOND
     1    1    3 ar
     2    1   10 ar
     3    1   24 1
     4    2    4 ar
     5    2   10 ar
     6    2   26 1
     7    3   12 ar
     8    3   25 1
     9    4   12 ar
    10    4   27 1
    11    5    7 ar
    12    5   11 ar
    13    5   37 1
    14    6    8 ar
    15    6   11 ar
    16    6   28 1
    17    7   18 ar
    18    7   39 1
    19    8   18 ar
    20    8   29 1
    21    9   19 2
    22    9   22 1
    23    9   30 1
    24   10   13 1
    25   11   17 1
    26   12   23 1
    27   13   14 2
    28   13   22 1
    29   14   15 1
    30   14   19 1
    31   15   20 1
    32   15   21 2
    33   16   23 1
    34   16   34 1
    35   16   35 1
    36   16   36 1
    37   17   20 1
    38   17   31 1
    39   17   32 1
    40   20   33 1
    41   20   38 1
@<TRIPOS>SUBSTRUCTURE
     1 SJJ         1 TEMP              0 ****  ****    0 ROOT
