@<TRIPOS>MOLECULE
SJR
   29    30     1     0     0
SMALL
bcc


@<TRIPOS>ATOM
      1 C            0.0000     0.0000     0.0000 c3         1 SJR       0.244700
      2 N            3.2400    -0.0020     6.1230 ns         1 SJR      -0.123400
      3 O            1.4290     0.0000     0.0000 os         1 SJR      -0.304900
      4 C1           2.0460     0.0000     1.2090 ca         1 SJR       0.176100
      5 N1           5.1910    -0.1090     7.4270 nb         1 SJR      -0.557000
      6 O1           5.1880    -0.0020     5.0560 o          1 SJR      -0.575100
      7 C2           3.4340    -0.0010     1.2800 ca         1 SJR      -0.189000
      8 C3           4.0630    -0.0020     2.5040 ca         1 SJR      -0.015000
      9 C4           3.3030    -0.0010     3.6780 ca         1 SJR      -0.207600
     10 C5           3.9740    -0.0020     4.9920 c          1 SJR       0.576700
     11 C6           3.8690    -0.1090     7.3610 ca         1 SJR       0.366200
     12 C7           3.1020    -0.2150     8.5170 ca         1 SJR      -0.273300
     13 C8           3.7390    -0.3210     9.7390 ca         1 SJR      -0.039000
     14 C9           5.1270    -0.3180     9.7660 ca         1 SJR      -0.259300
     15 C10          5.8260    -0.2100     8.5800 ca         1 SJR       0.433200
     16 C11          1.9080    -0.0000     3.6030 ca         1 SJR      -0.015000
     17 C12          1.2870     0.0050     2.3730 ca         1 SJR      -0.189000
     18 H           -0.3610     0.8860     0.5080 h1         1 SJR      -0.001300
     19 HA          -0.3610    -0.0020    -1.0210 h1         1 SJR      -0.001300
     20 HB          -0.3610    -0.8830     0.5130 h1         1 SJR      -0.001300
     21 HN           2.2460     0.1060     6.0740 hn         1 SJR       0.174500
     22 H2           4.0220    -0.0010     0.3700 ha         1 SJR       0.122000
     23 H3           5.1440    -0.0020     2.5590 ha         1 SJR       0.112500
     24 H7           2.0200    -0.2140     8.4600 ha         1 SJR       0.112000
     25 H8           3.1670    -0.4050    10.6560 ha         1 SJR       0.105000
     26 H9           5.6560    -0.4000    10.7080 ha         1 SJR       0.114000
     27 H10          6.9090    -0.2070     8.5960 h4         1 SJR      -0.018900
     28 H11          1.3160     0.0020     4.5100 ha         1 SJR       0.112500
     29 H12          0.2050     0.0060     2.3140 ha         1 SJR       0.122000
@<TRIPOS>BOND
     1     1     3 1   
     2     1    18 1   
     3     1    19 1   
     4     1    20 1   
     5     2    10 1   
     6     2    11 1   
     7     2    21 1   
     8     3     4 1   
     9     4     7 ar  
    10     4    17 ar  
    11     5    11 ar  
    12     5    15 ar  
    13     6    10 2   
    14     7     8 ar  
    15     7    22 1   
    16     8     9 ar  
    17     8    23 1   
    18     9    10 1   
    19     9    16 ar  
    20    11    12 ar  
    21    12    13 ar  
    22    12    24 1   
    23    13    14 ar  
    24    13    25 1   
    25    14    15 ar  
    26    14    26 1   
    27    15    27 1   
    28    16    17 ar  
    29    16    28 1   
    30    17    29 1   
@<TRIPOS>SUBSTRUCTURE
     1 SJR         1 TEMP              0 ****  ****    0 ROOT
