@<TRIPOS>MOLECULE
molecule
   29    30     1     0     0
SMALL
bcc


@<TRIPOS>ATOM
      1 C            0.0000     0.0000     0.0000 c3         1 SJR       0.127700
      2 N            3.2400    -0.0020     6.1230 ns         1 SJR      -0.554400
      3 O            1.4290     0.0000     0.0000 os         1 SJR      -0.323900
      4 C1           2.0460     0.0000     1.2090 ca         1 SJR       0.166100
      5 N1           5.1910    -0.1090     7.4270 nb         1 SJR      -0.682000
      6 O1           5.1880    -0.0020     5.0560 o          1 SJR      -0.533100
      7 C2           3.4340    -0.0010     1.2800 ca         1 SJR      -0.201500
      8 C3           4.0630    -0.0020     2.5040 ca         1 SJR      -0.048000
      9 C4           3.3030    -0.0010     3.6780 ca         1 SJR      -0.191600
     10 C5           3.9740    -0.0020     4.9920 c          1 SJR       0.666700
     11 C6           3.8690    -0.1090     7.3610 ca         1 SJR       0.558200
     12 C7           3.1020    -0.2150     8.5170 ca         1 SJR      -0.300300
     13 C8           3.7390    -0.3210     9.7390 ca         1 SJR      -0.066000
     14 C9           5.1270    -0.3180     9.7660 ca         1 SJR      -0.293300
     15 C10          5.8260    -0.2100     8.5800 ca         1 SJR       0.453200
     16 C11          1.9080    -0.0000     3.6030 ca         1 SJR      -0.048000
     17 C12          1.2870     0.0050     2.3730 ca         1 SJR      -0.201500
     18 H           -0.3610     0.8860     0.5080 h1         1 SJR       0.043700
     19 HA          -0.3610    -0.0020    -1.0210 h1         1 SJR       0.043700
     20 HB          -0.3610    -0.8830     0.5130 h1         1 SJR       0.043700
     21 HN           2.2460     0.1060     6.0740 hn         1 SJR       0.328500
     22 H2           4.0220    -0.0010     0.3700 ha         1 SJR       0.144500
     23 H3           5.1440    -0.0020     2.5590 ha         1 SJR       0.143000
     24 H7           2.0200    -0.2140     8.4600 ha         1 SJR       0.132000
     25 H8           3.1670    -0.4050    10.6560 ha         1 SJR       0.137000
     26 H9           5.6560    -0.4000    10.7080 ha         1 SJR       0.137000
     27 H10          6.9090    -0.2070     8.5960 h4         1 SJR       0.028100
     28 H11          1.3160     0.0020     4.5100 ha         1 SJR       0.143000
     29 H12          0.2050     0.0060     2.3140 ha         1 SJR       0.144500
@<TRIPOS>BOND
     1     1     3 1
     2     2    10 1
     3     2    11 1
     4     3     4 1
     5     4     7 ar
     6     4    17 ar
     7     5    11 ar
     8     5    15 ar
     9     6    10 2
    10     7     8 ar
    11     8     9 ar
    12     9    10 1
    13     9    16 ar
    14    11    12 ar
    15    12    13 ar
    16    13    14 ar
    17    14    15 ar
    18    16    17 ar
    19     1    18 1
    20     1    19 1
    21     1    20 1
    22     2    21 1
    23     7    22 1
    24     8    23 1
    25    12    24 1
    26    13    25 1
    27    14    26 1
    28    15    27 1
    29    16    28 1
    30    17    29 1
@<TRIPOS>SUBSTRUCTURE
     1 SJR         1 TEMP              0 ****  ****    0 ROOT
