@<TRIPOS>MOLECULE
molecule
   42    44     1     0     0
SMALL
bcc


@<TRIPOS>ATOM
      1 C25          0.0000     0.0000     0.0000 ca         1 SJZ      -0.111000
      2 C24          1.3810     0.0000     0.0000 ca         1 SJZ      -0.158000
      3 C23          2.0770     0.0000     1.1920 ca         1 SJZ      -0.125000
      4 C22          3.1600    -0.9220     3.8980 ca         1 SJZ      -0.116500
      5 C20          3.5280    -0.0040     6.0790 ca         1 SJZ      -0.136000
      6 C18          1.8210     0.9250     4.6800 ca         1 SJZ      -0.116500
      7 C19          2.5140     0.9140     5.8740 ca         1 SJZ      -0.134500
      8 C17          2.1370     0.0010     3.6850 cp         1 SJZ      -0.023000
      9 C16          1.3880     0.0000     2.4050 cp         1 SJZ      -0.041000
     10 C21          3.8500    -0.9200     5.0930 ca         1 SJZ      -0.134500
     11 C14         -0.0040    -0.0010     2.4110 ca         1 SJZ      -0.036300
     12 C13         -0.7000     0.0060     1.2060 cp         1 SJZ      -0.014000
     13 C12         -2.1830     0.0110     1.2050 cp         1 SJZ      -0.068000
     14 C11         -2.8820    -1.0760     0.6990 ca         1 SJZ      -0.106000
     15 C02         -2.8810     1.1120     1.7190 ca         1 SJZ       0.088100
     16 C03         -4.2700     1.1180     1.7180 ca         1 SJZ      -0.187000
     17 C04         -4.9680     0.0440     1.2130 ca         1 SJZ      -0.114000
     18 C05         -4.2800    -1.0640     0.7020 ca         1 SJZ      -0.027800
     19 C06         -5.0270    -2.2120     0.1680 ce         1 SJZ      -0.180200
     20 C07         -6.3790    -2.1990     0.1710 cf         1 SJZ      -0.130200
     21 C08         -7.0980    -3.3070    -0.3440 c          1 SJZ       0.858800
     22 O09         -6.5010    -4.2680    -0.7880 o          1 SJZ      -0.839800
     23 O10         -8.4480    -3.2930    -0.3420 o          1 SJZ      -0.839800
     24 H251        -0.5410    -0.0000    -0.9390 ha         1 SJZ       0.135000
     25 H241         1.9200     0.0000    -0.9390 ha         1 SJZ       0.122000
     26 H231         3.1200     0.1520     0.9430 ha         1 SJZ       0.127000
     27 H221         3.4110    -1.6400     3.1270 ha         1 SJZ       0.139000
     28 H201         4.0710    -0.0070     7.0170 ha         1 SJZ       0.121000
     29 H181         1.0270     1.6440     4.5190 ha         1 SJZ       0.139000
     30 H191         2.2680     1.6300     6.6490 ha         1 SJZ       0.124000
     31 H151        -1.7230    -0.4640     3.5780 hc         1 SJZ       0.051033
     32 H152        -0.8870     1.0200     4.0570 hc         1 SJZ       0.051033
     33 H153        -0.1900    -0.5560     4.4570 hc         1 SJZ       0.051033
     34 H211         4.6450    -1.6370     5.2600 ha         1 SJZ       0.124000
     35 H111        -2.3470    -1.9310     0.3040 ha         1 SJZ       0.142000
     36 H011        -2.5130     2.9660     1.8150 ho         1 SJZ       0.408000
     37 H031        -4.8060     1.9720     2.1150 ha         1 SJZ       0.123000
     38 H041        -6.0520     0.0540     1.2150 ha         1 SJZ       0.148000
     39 H061        -4.4940    -3.0680    -0.2280 ha         1 SJZ       0.155000
     40 H071        -6.9110    -1.3420     0.5670 ha         1 SJZ       0.103000
     41 C15         -0.7540    -0.0000     3.7180 c3         1 SJZ      -0.051800
     42 O01         -2.2000     2.1730     2.2180 oh         1 SJZ      -0.519100
@<TRIPOS>BOND
     1     5     7 ar
     2     5    10 ar
     3     7     6 ar
     4    10     4 ar
     5     6     8 ar
     6     4     8 ar
     7     8     9 1
     8     9     3 ar
     9     9    11 ar
    10    41    11 1
    11     3     2 ar
    12    11    12 ar
    13     2     1 ar
    14    12     1 ar
    15    12    13 1
    16    22    21 1
    17    14    13 ar
    18    14    18 ar
    19    13    15 ar
    20    21    20 1
    21    21    23 1
    22    20    19 2
    23    19    18 1
    24    18    17 ar
    25    15    42 1
    26    15    16 ar
    27    17    16 ar
    28     1    24 1
    29     2    25 1
    30     3    26 1
    31     4    27 1
    32     5    28 1
    33     6    29 1
    34     7    30 1
    35    41    31 1
    36    41    32 1
    37    41    33 1
    38    10    34 1
    39    14    35 1
    40    42    36 1
    41    16    37 1
    42    17    38 1
    43    19    39 1
    44    20    40 1
@<TRIPOS>SUBSTRUCTURE
     1 SJZ         1 TEMP              0 ****  ****    0 ROOT
