@<TRIPOS>MOLECULE
SK1
   60    61     1     0     0
SMALL
bcc


@<TRIPOS>ATOM
      1 N3           0.0000     0.0000     0.0000 ns         1 SK1      -0.210900
      2 N5           3.6150    -1.1950    -6.0760 nz         1 SK1       0.123400
      3 N4           3.6020     1.1270    -6.0420 n2         1 SK1      -0.454100
      4 C14          2.8910    -0.0010    -4.0310 ca         1 SK1      -0.197900
      5 C13          2.6580     1.2050    -3.3710 ca         1 SK1      -0.060500
      6 C12          2.1970     1.1990    -2.0710 ca         1 SK1      -0.064500
      7 C17          1.9670    -0.0000    -1.4210 ca         1 SK1      -0.057300
      8 C16          2.2030    -1.2010    -2.0680 ca         1 SK1      -0.064500
      9 C15          2.6580    -1.2070    -3.3710 ca         1 SK1      -0.060500
     10 C11          1.4640     0.0000     0.0000 c3         1 SK1       0.102300
     11 C10         -0.6740     0.0000     1.1660 c          1 SK1       0.576100
     12 O5          -0.0690     0.0000     2.2170 o          1 SK1      -0.619100
     13 C8          -2.1820    -0.0000     1.1660 c3         1 SK1      -0.083300
     14 N2          -2.6700     0.0000     2.5470 ns         1 SK1      -0.174900
     15 C7          -3.8920    -0.4930     2.8300 c          1 SK1       0.601100
     16 O4          -4.5870    -0.9370     1.9400 o          1 SK1      -0.616100
     17 C5          -4.3950    -0.4930     4.2510 c3         1 SK1       0.106500
     18 C6          -4.4470     0.9440     4.7730 c3         1 SK1       0.140400
     19 O3          -5.2350     1.7440     3.8890 oh         1 SK1      -0.546800
     20 N1          -5.7380    -1.0770     4.2930 n7         1 SK1      -0.582100
     21 S1          -6.2040    -1.9860     5.5960 s6         1 SK1       0.954900
     22 O1          -5.1440    -2.9250     5.7210 o          1 SK1      -0.572800
     23 O2          -7.5240    -2.3810     5.2480 o          1 SK1      -0.572800
     24 C1          -6.2010    -0.7890     6.9590 c3         1 SK1       0.050700
     25 C4          -6.6120    -1.4780     8.2350 ca         1 SK1      -0.097300
     26 C19         -5.6540    -2.0560     9.0470 ca         1 SK1      -0.086000
     27 C20         -6.0310    -2.6890    10.2160 ca         1 SK1      -0.092500
     28 C21         -7.3640    -2.7430    10.5750 ca         1 SK1      -0.090000
     29 C2          -8.3220    -2.1650     9.7620 ca         1 SK1      -0.092500
     30 C3          -7.9460    -1.5280     8.5950 ca         1 SK1      -0.086000
     31 C22         -2.6910     1.2490     0.4440 c3         1 SK1      -0.020100
     32 H3          -0.5000    -0.0260    -0.8670 hn         1 SK1       0.178500
     33 H5N1         2.7600    -1.7120    -6.1370 hn         1 SK1       0.227133
     34 H5N2         3.9670    -1.0220    -6.9970 hn         1 SK1       0.227133
     35 H4           3.9350     1.1270    -6.9850 hn         1 SK1       0.337400
     36 H13          2.7720     2.1430    -3.9010 ha         1 SK1       0.108000
     37 H12          2.0250     2.1350    -1.5540 ha         1 SK1       0.132000
     38 H16          2.0370    -2.1370    -1.5490 ha         1 SK1       0.132000
     39 H15          2.7700    -2.1460    -3.9000 ha         1 SK1       0.108000
     40 H111         1.8250     0.8850     0.5110 h1         1 SK1       0.040700
     41 H112         1.8250    -0.8840     0.5110 h1         1 SK1       0.040700
     42 H8          -2.5430    -0.8850     0.6560 h1         1 SK1       0.069700
     43 H2          -2.3440     0.8950     2.8530 hn         1 SK1       0.180500
     44 H5          -3.7260    -1.0780     4.8700 h1         1 SK1       0.071700
     45 H6C1        -3.4720     0.8480     5.2360 h1         1 SK1       0.013700
     46 H6C2        -5.0970     0.9070     5.6390 h1         1 SK1       0.013700
     47 HA          -5.2840     2.6250     4.2230 ho         1 SK1       0.395000
     48 H1          -6.3620    -0.9530     3.5200 hn         1 SK1       0.378800
     49 H1C1        -5.2060    -0.3760     7.0750 h1         1 SK1       0.069700
     50 H1C2        -6.9000     0.0100     6.7390 h1         1 SK1       0.069700
     51 H19         -4.6090    -2.0130     8.7660 ha         1 SK1       0.111000
     52 H20         -5.2800    -3.1420    10.8530 ha         1 SK1       0.107000
     53 H21         -7.6600    -3.2400    11.4910 ha         1 SK1       0.106000
     54 HC          -9.3670    -2.2060    10.0440 ha         1 SK1       0.107000
     55 HB          -8.6960    -1.0750     7.9580 ha         1 SK1       0.111000
     56 H221        -1.8480     1.8410     0.1080 hc         1 SK1       0.015700
     57 H222        -3.2890     0.9550    -0.4100 hc         1 SK1       0.015700
     58 H223        -3.2970     1.8370     1.1230 hc         1 SK1       0.015700
     59 H53          4.2910    -1.7260    -5.5650 hn         1 SK1       0.227133
     60 C18          3.3850    -0.0010    -5.4270 ce         1 SK1       0.232800
@<TRIPOS>BOND
     1     1    10 1   
     2     1    11 1   
     3     1    32 1   
     4     2    33 1   
     5     2    34 1   
     6     2    59 1   
     7     2    60 1   
     8     3    35 1   
     9     3    60 2   
    10     4     5 ar  
    11     4     9 ar  
    12     4    60 1   
    13     5     6 ar  
    14     5    36 1   
    15     6     7 ar  
    16     6    37 1   
    17     7     8 ar  
    18     7    10 1   
    19     8     9 ar  
    20     8    38 1   
    21     9    39 1   
    22    10    40 1   
    23    10    41 1   
    24    11    12 2   
    25    11    13 1   
    26    13    14 1   
    27    13    31 1   
    28    13    42 1   
    29    14    15 1   
    30    14    43 1   
    31    15    16 2   
    32    15    17 1   
    33    17    18 1   
    34    17    20 1   
    35    17    44 1   
    36    18    19 1   
    37    18    45 1   
    38    18    46 1   
    39    19    47 1   
    40    20    21 1   
    41    20    48 1   
    42    21    22 2   
    43    21    23 2   
    44    21    24 1   
    45    24    25 1   
    46    24    49 1   
    47    24    50 1   
    48    25    26 ar  
    49    25    30 ar  
    50    26    27 ar  
    51    26    51 1   
    52    27    28 ar  
    53    27    52 1   
    54    28    29 ar  
    55    28    53 1   
    56    29    30 ar  
    57    29    54 1   
    58    30    55 1   
    59    31    56 1   
    60    31    57 1   
    61    31    58 1   
@<TRIPOS>SUBSTRUCTURE
     1 SK1         1 TEMP              0 ****  ****    0 ROOT
