@<TRIPOS>MOLECULE
molecule
   60    61     1     0     0
SMALL
bcc


@<TRIPOS>ATOM
      1 N3           0.0000     0.0000     0.0000 ns         1 SK1      -0.597900
      2 N5           3.6150    -1.1950    -6.0760 nz         1 SK1      -0.742600
      3 N4           3.6020     1.1270    -6.0420 n2         1 SK1      -0.719100
      4 C14          2.8910    -0.0010    -4.0310 ca         1 SK1      -0.234900
      5 C13          2.6580     1.2050    -3.3710 ca         1 SK1      -0.102000
      6 C12          2.1970     1.1990    -2.0710 ca         1 SK1      -0.090500
      7 C17          1.9670    -0.0000    -1.4210 ca         1 SK1      -0.054300
      8 C16          2.2030    -1.2010    -2.0680 ca         1 SK1      -0.090500
      9 C15          2.6580    -1.2070    -3.3710 ca         1 SK1      -0.102000
     10 C11          1.4640     0.0000     0.0000 c3         1 SK1       0.152300
     11 C10         -0.6740     0.0000     1.1660 c          1 SK1       0.656100
     12 O5          -0.0690     0.0000     2.2170 o          1 SK1      -0.577100
     13 C8          -2.1820    -0.0000     1.1660 c3         1 SK1      -0.005300
     14 N2          -2.6700     0.0000     2.5470 ns         1 SK1      -0.520900
     15 C7          -3.8920    -0.4930     2.8300 c          1 SK1       0.673100
     16 O4          -4.5870    -0.9370     1.9400 o          1 SK1      -0.576100
     17 C5          -4.3950    -0.4930     4.2510 c3         1 SK1       0.167500
     18 C6          -4.4470     0.9440     4.7730 c3         1 SK1       0.076400
     19 O3          -5.2350     1.7440     3.8890 oh         1 SK1      -0.565800
     20 N1          -5.7380    -1.0770     4.2930 n7         1 SK1      -0.898100
     21 S1          -6.2040    -1.9860     5.5960 s6         1 SK1       1.326900
     22 O1          -5.1440    -2.9250     5.7210 o          1 SK1      -0.616300
     23 O2          -7.5240    -2.3810     5.2480 o          1 SK1      -0.616300
     24 C1          -6.2010    -0.7890     6.9590 c3         1 SK1      -0.169300
     25 C4          -6.6120    -1.4780     8.2350 ca         1 SK1      -0.100300
     26 C19         -5.6540    -2.0560     9.0470 ca         1 SK1      -0.110000
     27 C20         -6.0310    -2.6890    10.2160 ca         1 SK1      -0.122000
     28 C21         -7.3640    -2.7430    10.5750 ca         1 SK1      -0.113000
     29 C2          -8.3220    -2.1650     9.7620 ca         1 SK1      -0.122000
     30 C3          -7.9460    -1.5280     8.5950 ca         1 SK1      -0.110000
     31 C22         -2.6910     1.2490     0.4440 c3         1 SK1      -0.122100
     32 H3          -0.5000    -0.0260    -0.8670 hn         1 SK1       0.317500
     33 H5N1         3.9640    -1.0120    -6.9960 hn         1 SK1       0.475800
     34 H5N2         4.3000    -1.7040    -5.5550 hn         1 SK1       0.475800
     35 H4           3.4350     1.9950    -5.5720 hn         1 SK1       0.483400
     36 H13          2.7710     2.1430    -3.9010 ha         1 SK1       0.128000
     37 H12          2.0250     2.1350    -1.5540 ha         1 SK1       0.168000
     38 H16          2.0370    -2.1370    -1.5490 ha         1 SK1       0.168000
     39 H15          2.7700    -2.1460    -3.9000 ha         1 SK1       0.128000
     40 H111         1.8260     0.8850     0.5110 h1         1 SK1       0.074700
     41 H112         1.8250    -0.8840     0.5110 h1         1 SK1       0.074700
     42 H8          -2.5430    -0.8850     0.6560 h1         1 SK1       0.101700
     43 H2          -2.3440     0.8950     2.8530 hn         1 SK1       0.308500
     44 H5          -3.7260    -1.0780     4.8700 h1         1 SK1       0.104700
     45 H6C1        -3.4720     0.8480     5.2360 h1         1 SK1       0.046700
     46 H6C2        -5.0970     0.9070     5.6390 h1         1 SK1       0.046700
     47 HA          -5.2870     2.6240     4.2240 ho         1 SK1       0.410000
     48 H1          -6.3620    -0.9530     3.5200 hn         1 SK1       0.479800
     49 H1C1        -5.2060    -0.3760     7.0750 h1         1 SK1       0.100200
     50 H1C2        -6.9000     0.0100     6.7390 h1         1 SK1       0.100200
     51 H19         -4.6090    -2.0130     8.7660 ha         1 SK1       0.137000
     52 H20         -5.2800    -3.1420    10.8530 ha         1 SK1       0.138000
     53 H21         -7.6600    -3.2400    11.4910 ha         1 SK1       0.137000
     54 HC          -9.3670    -2.2060    10.0440 ha         1 SK1       0.138000
     55 HB          -8.6960    -1.0750     7.9580 ha         1 SK1       0.137000
     56 H221        -3.5400     0.9870    -0.1760 hc         1 SK1       0.050700
     57 H222        -2.9930     1.9910     1.1740 hc         1 SK1       0.050700
     58 H223        -1.9020     1.6550    -0.1770 hc         1 SK1       0.050700
     59 H53          2.7540    -1.7010    -6.1410 hn         1 SK1       0.475800
     60 C18          3.3850    -0.0010    -5.4270 ce         1 SK1       0.516800
@<TRIPOS>BOND
     1     1    10 1
     2     1    11 1
     3     1    32 1
     4     2    60 1
     5     2    33 1
     6     2    34 1
     7    60     3 2
     8    60     4 1
     9     3    35 1
    10     4     5 ar
    11     4     9 ar
    12     5     6 ar
    13     5    36 1
    14     6     7 ar
    15     6    37 1
    16     7     8 ar
    17     7    10 1
    18     8     9 ar
    19     8    38 1
    20     9    39 1
    21    10    40 1
    22    10    41 1
    23    11    12 2
    24    11    13 1
    25    13    14 1
    26    13    31 1
    27    13    42 1
    28    14    15 1
    29    14    43 1
    30    15    16 2
    31    15    17 1
    32    17    18 1
    33    17    20 1
    34    17    44 1
    35    18    19 1
    36    18    45 1
    37    18    46 1
    38    19    47 1
    39    20    21 1
    40    20    48 1
    41    21    22 2
    42    21    23 2
    43    21    24 1
    44    24    25 1
    45    24    49 1
    46    24    50 1
    47    25    26 ar
    48    25    30 ar
    49    26    27 ar
    50    26    51 1
    51    27    28 ar
    52    27    52 1
    53    28    29 ar
    54    28    53 1
    55    29    30 ar
    56    29    54 1
    57    30    55 1
    58    31    56 1
    59    31    57 1
    60    31    58 1
    61    59     2 1
@<TRIPOS>SUBSTRUCTURE
     1 SK1         1 TEMP              0 ****  ****    0 ROOT
