@<TRIPOS>MOLECULE
SK2
   49    51     1     0     0
SMALL
bcc


@<TRIPOS>ATOM
      1 O6           0.0000     0.0000     0.0000 o          1 SK2      -0.643533
      2 S1           1.4780     0.0000     0.0000 s6         1 SK2       1.069700
      3 O4           1.9380     0.0000     1.3930 o          1 SK2      -0.643533
      4 O5           2.0860    -1.0500    -0.8290 o          1 SK2      -0.643533
      5 N3           1.9300     1.4130    -0.6620 nu         1 SK2      -0.477500
      6 C15          1.4700     2.6090    -0.1900 ca         1 SK2       0.153600
      7 C16          2.1010     3.2150     0.8980 ca         1 SK2      -0.105000
      8 C14          0.4060     3.2700    -0.8020 ca         1 SK2      -0.104000
      9 C13         -0.0360     4.5040    -0.3160 ca         1 SK2      -0.124300
     10 C12         -1.1900     5.1970    -1.0080 c3         1 SK2       0.127300
     11 N2          -1.3030     6.6160    -0.6340 n          1 SK2      -0.099800
     12 C4          -0.2470     7.3030     0.0950 c3         1 SK2      -0.061300
     13 C5           0.9210     7.6570    -0.7920 c          1 SK2       0.568100
     14 O1           2.0180     7.9130    -0.3070 o          1 SK2      -0.654100
     15 N1           0.7570     7.6480    -2.1080 ns         1 SK2      -0.169900
     16 C6           1.8850     7.9810    -2.9750 c3         1 SK2       0.080300
     17 C3           0.1250     6.4230     1.2940 c3         1 SK2       0.047900
     18 C2           0.5960     5.0780     0.7720 ca         1 SK2      -0.123300
     19 C1           1.6700     4.4460     1.3990 ca         1 SK2      -0.086000
     20 C7          -2.3670     7.3370    -0.9590 c          1 SK2       0.672100
     21 O3          -2.5400     8.5190    -0.6790 o          1 SK2      -0.653000
     22 O2          -3.3540     6.5950    -1.6940 os         1 SK2      -0.444900
     23 C8          -4.5960     7.2250    -2.0110 c3         1 SK2       0.294700
     24 C11         -5.1710     6.3930    -3.1340 ca         1 SK2      -0.115300
     25 C19         -4.5320     6.2890    -4.3730 ca         1 SK2      -0.076000
     26 C9          -5.1160     5.5070    -5.3660 ca         1 SK2      -0.105000
     27 C18         -6.3620     5.7160    -2.8730 ca         1 SK2      -0.076000
     28 C10         -6.9520     4.9380    -3.8720 ca         1 SK2      -0.105000
     29 C17         -6.3160     4.8400    -5.1070 ca         1 SK2      -0.098000
     30 HN3          2.5630     1.4060    -1.4380 hn         1 SK2       0.320800
     31 H16          2.9450     2.7210     1.3630 ha         1 SK2       0.122000
     32 H14         -0.0820     2.8240    -1.6600 ha         1 SK2       0.113000
     33 H121        -1.0450     5.1300    -2.0800 h1         1 SK2       0.029200
     34 H122        -2.1110     4.6920    -0.7420 h1         1 SK2       0.029200
     35 H4          -0.6620     8.2250     0.4820 h1         1 SK2       0.075700
     36 HN1         -0.1590     7.5440    -2.4970 hn         1 SK2       0.172500
     37 H61          2.2910     8.9440    -2.6870 h1         1 SK2       0.009033
     38 H62          2.6520     7.2230    -2.8780 h1         1 SK2       0.009033
     39 H63          1.5490     8.0250    -4.0040 h1         1 SK2       0.009033
     40 H31         -0.7550     6.2750     1.9080 hc         1 SK2       0.034700
     41 H32          0.9340     6.8930     1.8390 hc         1 SK2       0.034700
     42 H1           2.1690     4.9060     2.2440 ha         1 SK2       0.101000
     43 H81         -5.2570     7.2100    -1.1530 h1         1 SK2       0.010700
     44 H82         -4.4290     8.2430    -2.3430 h1         1 SK2       0.010700
     45 H19         -3.6020     6.8130    -4.5600 ha         1 SK2       0.106500
     46 H9          -4.6400     5.4130    -6.3350 ha         1 SK2       0.102000
     47 H18         -6.8380     5.8070    -1.9050 ha         1 SK2       0.106500
     48 H10         -7.8790     4.4110    -3.6850 ha         1 SK2       0.102000
     49 H17         -6.7650     4.2360    -5.8860 ha         1 SK2       0.096000
@<TRIPOS>BOND
     1     1     2 1   
     2     2     3 1   
     3     2     4 1   
     4     2     5 1   
     5     5     6 1   
     6     5    30 1   
     7     6     7 ar  
     8     6     8 ar  
     9     7    19 ar  
    10     7    31 1   
    11     8     9 ar  
    12     8    32 1   
    13     9    10 1   
    14     9    18 ar  
    15    10    11 1   
    16    10    33 1   
    17    10    34 1   
    18    11    12 1   
    19    11    20 1   
    20    12    13 1   
    21    12    17 1   
    22    12    35 1   
    23    13    14 2   
    24    13    15 1   
    25    15    16 1   
    26    15    36 1   
    27    16    37 1   
    28    16    38 1   
    29    16    39 1   
    30    17    18 1   
    31    17    40 1   
    32    17    41 1   
    33    18    19 ar  
    34    19    42 1   
    35    20    21 2   
    36    20    22 1   
    37    22    23 1   
    38    23    24 1   
    39    23    43 1   
    40    23    44 1   
    41    24    25 ar  
    42    24    27 ar  
    43    25    26 ar  
    44    25    45 1   
    45    26    29 ar  
    46    26    46 1   
    47    27    28 ar  
    48    27    47 1   
    49    28    29 ar  
    50    28    48 1   
    51    29    49 1   
@<TRIPOS>SUBSTRUCTURE
     1 SK2         1 TEMP              0 ****  ****    0 ROOT
