@<TRIPOS>MOLECULE
SK3
   34    35     1     0     0
SMALL
bcc


@<TRIPOS>ATOM
      1 C5           0.0000     0.0000     0.0000 c3         1 SK3       0.077500
      2 N5          -0.5250     0.5510    -1.2560 n7         1 SK3      -0.516200
      3 C4           1.5490     0.0000     0.0000 c3         1 SK3       0.181100
      4 O4           2.0490     1.1740    -0.6450 oh         1 SK3      -0.515800
      5 C3           1.9280     0.0000     1.4960 c3         1 SK3       0.150600
      6 O3           3.0850     0.8110     1.7080 oh         1 SK3      -0.528800
      7 C2           0.7250     0.5890     2.2540 c3         1 SK3       0.150600
      8 O2           1.1170     1.7740     2.9500 oh         1 SK3      -0.528800
      9 C1          -0.3420     0.9280     1.1920 c3         1 SK3       0.181100
     10 O1          -0.2460     2.2990     0.8060 oh         1 SK3      -0.515800
     11 C6          -0.7120    -0.5830    -2.1700 c3         1 SK3       0.186100
     12 C7          -1.2500    -0.0850    -3.4860 ca         1 SK3      -0.093300
     13 C12         -0.3810     0.2860    -4.4940 ca         1 SK3      -0.086500
     14 C11         -0.8760     0.7430    -5.7010 ca         1 SK3      -0.101500
     15 C8          -2.6160    -0.0040    -3.6870 ca         1 SK3      -0.086500
     16 C9          -3.1120     0.4570    -4.8920 ca         1 SK3      -0.101500
     17 C10         -2.2410     0.8290    -5.9010 ca         1 SK3      -0.100000
     18 H5          -0.3800    -0.9990     0.1750 h1         1 SK3       0.018700
     19 HN5         -1.4080     0.9900    -1.0840 hn         1 SK3       0.255800
     20 H4           1.9260    -0.8940    -0.4830 h1         1 SK3      -0.009800
     21 HO4          2.8500     0.9680    -1.0970 ho         1 SK3       0.373500
     22 H3           2.1130    -1.0140     1.8290 h1         1 SK3      -0.007300
     23 HO3          3.7790     0.2810     2.0650 ho         1 SK3       0.369000
     24 H2           0.3340    -0.1430     2.9500 h1         1 SK3      -0.007300
     25 HO2          0.9080     1.6850     3.8650 ho         1 SK3       0.369000
     26 H1          -1.3330     0.7040     1.5700 h1         1 SK3      -0.009800
     27 HO1         -0.9990     2.7690     1.1240 ho         1 SK3       0.373500
     28 H61          0.2390    -1.0760    -2.3330 h1         1 SK3       0.006200
     29 H62         -1.4130    -1.2860    -1.7360 h1         1 SK3       0.006200
     30 H12          0.6890     0.2190    -4.3380 ha         1 SK3       0.103500
     31 H11         -0.1940     1.0340    -6.4910 ha         1 SK3       0.101500
     32 H8          -3.2980    -0.2960    -2.8970 ha         1 SK3       0.103500
     33 H9          -4.1820     0.5230    -5.0490 ha         1 SK3       0.101500
     34 H10         -2.6290     1.1890    -6.8460 ha         1 SK3       0.101000
@<TRIPOS>BOND
     1     1     2 1   
     2     1     3 1   
     3     1     9 1   
     4     1    18 1   
     5     2    11 1   
     6     2    19 1   
     7     3     4 1   
     8     3     5 1   
     9     3    20 1   
    10     4    21 1   
    11     5     6 1   
    12     5     7 1   
    13     5    22 1   
    14     6    23 1   
    15     7     8 1   
    16     7     9 1   
    17     7    24 1   
    18     8    25 1   
    19     9    10 1   
    20     9    26 1   
    21    10    27 1   
    22    11    12 1   
    23    11    28 1   
    24    11    29 1   
    25    12    13 ar  
    26    12    15 ar  
    27    13    14 ar  
    28    13    30 1   
    29    14    17 ar  
    30    14    31 1   
    31    15    16 ar  
    32    15    32 1   
    33    16    17 ar  
    34    16    33 1   
    35    17    34 1   
@<TRIPOS>SUBSTRUCTURE
     1 SK3         1 TEMP              0 ****  ****    0 ROOT
