@<TRIPOS>MOLECULE
SK4
   44    46     1     0     0
SMALL
bcc


@<TRIPOS>ATOM
      1 O23          0.0000     0.0000     0.0000 o          1 SK4      -0.571300
      2 S18          1.4210     0.0000     0.0000 sy         1 SK4       0.872300
      3 O22          2.1550     0.0000     1.2180 o          1 SK4      -0.571300
      4 C21          2.0570    -1.2740    -1.1260 c3         1 SK4       0.034700
      5 C12          1.8560     1.5240    -0.7700 ca         1 SK4      -0.144500
      6 C17          0.9310     2.1720    -1.5820 ca         1 SK4       0.046000
      7 C11          1.2370     3.3520    -2.1910 ca         1 SK4      -0.172300
      8 C5           2.5020     3.9300    -2.0010 ca         1 SK4       0.439600
      9 N10          2.8220     5.0910    -2.5900 nb         1 SK4      -0.518000
     10 C7           3.9940     5.6500    -2.4290 ca         1 SK4       0.422200
     11 C13          4.9870     5.0640    -1.6270 ca         1 SK4      -0.411900
     12 C8           6.2960     5.7180    -1.4660 c          1 SK4       0.364700
     13 O14          7.1830     5.1590    -0.8500 o          1 SK4      -0.430100
     14 N3           6.5100     6.9370    -2.0010 nz         1 SK4       0.199600
     15 C2           3.4400     3.2670    -1.1730 ca         1 SK4      -0.223300
     16 C6           3.0930     2.0570    -0.5580 ca         1 SK4       0.058000
     17 C1           4.7170     3.8480    -0.9810 ca         1 SK4       0.252600
     18 N4           5.6640     3.2400    -0.1850 nu         1 SK4      -0.311000
     19 C9           6.5130     2.2700    -0.7250 ca         1 SK4       0.072600
     20 C15          7.3780     1.5650     0.1010 ca         1 SK4      -0.195000
     21 C19          8.2170     0.6040    -0.4390 ca         1 SK4       0.209100
     22 O25          9.0650    -0.0890     0.3660 os         1 SK4      -0.300900
     23 C26          9.9020    -1.0640    -0.2590 c3         1 SK4       0.245700
     24 C24          8.1930     0.3490    -1.8030 ca         1 SK4      -0.239000
     25 C20          7.3320     1.0530    -2.6240 ca         1 SK4      -0.006000
     26 C16          6.4890     2.0080    -2.0900 ca         1 SK4      -0.243000
     27 H21          1.5080    -2.1950    -0.9760 h1         1 SK4       0.066033
     28 H21A         1.9360    -0.9440    -2.1510 h1         1 SK4       0.066033
     29 H21B         3.1080    -1.4420    -0.9230 h1         1 SK4       0.066033
     30 H17         -0.0480     1.7320    -1.7320 ha         1 SK4       0.144000
     31 H11          0.5050     3.8440    -2.8210 ha         1 SK4       0.139000
     32 H7           4.2040     6.5880    -2.9270 h4         1 SK4      -0.047900
     33 HN3          5.8270     7.5790    -1.6510 hn         1 SK4       0.246133
     34 HN3A         6.4370     6.8810    -2.9970 hn         1 SK4       0.246133
     35 H6           3.7580     1.6090     0.1700 ha         1 SK4       0.144000
     36 HN4          5.7370     3.4860     0.7820 hn         1 SK4       0.320800
     37 H15          7.4430     1.8120     1.1540 ha         1 SK4       0.130000
     38 H26          9.2860    -1.8120    -0.7440 h1         1 SK4       0.003367
     39 H26A        10.5240    -1.5390     0.4910 h1         1 SK4       0.003367
     40 H26B        10.5310    -0.5800    -0.9960 h1         1 SK4       0.003367
     41 H24          8.8510    -0.4000    -2.2260 ha         1 SK4       0.133000
     42 H20          7.3140     0.8510    -3.6890 ha         1 SK4       0.104000
     43 H16          5.8160     2.5580    -2.7360 ha         1 SK4       0.103000
     44 H33          7.4400     7.2370    -1.7860 hn         1 SK4       0.246133
@<TRIPOS>BOND
     1     1     2 2   
     2     2     3 2   
     3     2     4 1   
     4     2     5 1   
     5     4    27 1   
     6     4    28 1   
     7     4    29 1   
     8     5     6 ar  
     9     5    16 ar  
    10     6     7 ar  
    11     6    30 1   
    12     7     8 ar  
    13     7    31 1   
    14     8     9 ar  
    15     8    15 ar  
    16     9    10 ar  
    17    10    11 ar  
    18    10    32 1   
    19    11    12 1   
    20    11    17 ar  
    21    12    13 2   
    22    12    14 1   
    23    14    33 1   
    24    14    34 1   
    25    14    44 1   
    26    15    16 ar  
    27    15    17 ar  
    28    16    35 1   
    29    17    18 1   
    30    18    19 1   
    31    18    36 1   
    32    19    20 ar  
    33    19    26 ar  
    34    20    21 ar  
    35    20    37 1   
    36    21    22 1   
    37    21    24 ar  
    38    22    23 1   
    39    23    38 1   
    40    23    39 1   
    41    23    40 1   
    42    24    25 ar  
    43    24    41 1   
    44    25    26 ar  
    45    25    42 1   
    46    26    43 1   
@<TRIPOS>SUBSTRUCTURE
     1 SK4         1 TEMP              0 ****  ****    0 ROOT
