@<TRIPOS>MOLECULE
SK6
   50    54     1     0     0
SMALL
bcc


@<TRIPOS>ATOM
      1 N01          0.0000     0.0000     0.0000 n2         1 SK6      -0.102000
      2 C02          1.3240     0.0000     0.0000 c2         1 SK6      -0.011000
      3 C03          2.0320     0.0000     1.1970 c2         1 SK6      -0.179000
      4 C04          1.3340     0.0010     2.3910 c2         1 SK6      -0.039000
      5 C05         -0.0540     0.0010     2.3470 c2         1 SK6      -0.158000
      6 C06         -0.6920     0.0010     1.1240 c2         1 SK6      -0.023000
      7 N07          2.0120    -0.0010    -1.2080 nv         1 SK6      -0.059000
      8 C08          2.0640     0.0000     3.7100 c3         1 SK6      -0.063000
      9 C09         -2.1980     0.0010     1.0700 c3         1 SK6      -0.300000
     10 C10         -2.6780     1.1830     0.2250 DU         1 SK6      -0.097000
     11 C11         -4.1840     1.1830     0.1720 ca         1 SK6      -0.080000
     12 C12         -4.9070     1.8710     1.1270 ca         1 SK6      -0.072000
     13 C13         -6.2970     1.8770     1.0840 ca         1 SK6       0.049000
     14 C14         -6.9620     1.1910     0.0800 ca         1 SK6      -0.191000
     15 C15         -6.2320     0.4970    -0.8850 ca         1 SK6       0.078000
     16 C16         -4.8360     0.5020    -0.8360 ca         1 SK6      -0.104000
     17 N17         -7.0220     2.5730     2.0540 nu         1 SK6      -0.363000
     18 C18         -8.4870     2.5790     2.0100 DU         1 SK6       0.071000
     19 C19         -9.0290     3.4070     3.1750 c3         1 SK6      -0.318000
     20 C20        -10.5360     3.4140     3.1290 c2         1 SK6       0.130000
     21 N21        -11.1520     3.8090     2.0320 n2         1 SK6      -0.082000
     22 C22        -12.4680     3.8300     1.9470 c2         1 SK6      -0.021000
     23 C23        -13.2530     3.4360     3.0140 c2         1 SK6      -0.159000
     24 C24        -12.6400     3.0140     4.1840 c2         1 SK6      -0.022000
     25 C25        -11.2540     2.9990     4.2350 c2         1 SK6      -0.216000
     26 C26         -6.9120    -0.2140    -1.9260 c1         1 SK6      -0.097000
     27 N27         -7.4500    -0.7940    -2.7410 n1         1 SK6      -0.058000
     28 H03          3.1160    -0.0000     1.1860 ha         1 SK6       0.119000
     29 H05         -0.6250     0.0020     3.2680 ha         1 SK6       0.121000
     30 HN07         2.2280     0.8650    -1.6610 hn         1 SK6       0.070000
     31 HN0A         2.2690    -0.8680    -1.6370 hn         1 SK6       0.070000
     32 H08          1.4360     0.4490     4.4700 hc         1 SK6       0.049000
     33 H08A         2.9800     0.5710     3.6160 hc         1 SK6       0.049000
     34 H08B         2.3000    -1.0190     3.9910 hc         1 SK6       0.049000
     35 H09         -2.5870     0.6540     1.8420 hc         1 SK6       0.093000
     36 H09A        -2.5240     0.3550     0.0990 DU         1 SK6       0.284000
     37 H10         -2.3330     2.1080     0.6690 ha         1 SK6       0.079500
     38 H10A        -2.2810     1.0940    -0.7790 ha         1 SK6       0.079500
     39 H12         -4.3910     2.4090     1.9130 ha         1 SK6       0.126000
     40 H14         -8.0450     1.1950     0.0470 ha         1 SK6       0.115000
     41 H16         -4.2650    -0.0310    -1.5870 ha         1 SK6       0.121000
     42 HN17        -7.9750     2.8240     1.8820 DU         1 SK6       0.235000
     43 H18         -8.8180     3.0200     1.0780 ha         1 SK6       0.042500
     44 H18A        -8.8540     1.5620     2.0780 ha         1 SK6       0.042500
     45 H19         -8.7120     2.9640     4.1120 hc         1 SK6       0.117000
     46 H19A       -10.1120     3.4240     3.1330 hc         1 SK6       0.117000
     47 H22        -12.9460     4.1600     1.0330 h4         1 SK6       0.128000
     48 H23        -14.3330     3.4590     2.9290 ha         1 SK6       0.124000
     49 H24        -13.2420     2.7020     5.0290 ha         1 SK6       0.117000
     50 H25        -10.7340     2.6720     5.1270 ha         1 SK6       0.136000
@<TRIPOS>BOND
     1     1     2 1   
     2     1     6 1   
     3     2     3 1   
     4     2     7 1   
     5     3     4 1   
     6     3    28 1   
     7     4     5 1   
     8     4     8 1   
     9     5     6 1   
    10     5    29 1   
    11     6     9 1   
    12     7    30 1   
    13     7    31 1   
    14     8    32 1   
    15     8    33 1   
    16     8    34 1   
    17     9    10 1   
    18     9    35 1   
    19     9    36 1   
    20    10    11 1   
    21    10    36 1   
    22    10    37 1   
    23    10    38 1   
    24    11    12 1   
    25    11    16 1   
    26    12    13 1   
    27    12    39 1   
    28    13    14 1   
    29    13    17 1   
    30    14    15 1   
    31    14    40 1   
    32    15    16 1   
    33    15    26 1   
    34    16    41 1   
    35    17    18 1   
    36    17    42 1   
    37    18    19 1   
    38    18    42 1   
    39    18    43 1   
    40    18    44 1   
    41    19    20 1   
    42    19    45 1   
    43    19    46 1   
    44    20    21 1   
    45    20    25 1   
    46    21    22 1   
    47    22    23 1   
    48    22    47 1   
    49    23    24 1   
    50    23    48 1   
    51    24    25 1   
    52    24    49 1   
    53    25    50 1   
    54    26    27 1   
@<TRIPOS>SUBSTRUCTURE
     1 SK6         1 TEMP              0 ****  ****    0 ROOT
