@<TRIPOS>MOLECULE
molecule
   50    52     1     0     0
SMALL
bcc


@<TRIPOS>ATOM
      1 N01          0.0000     0.0000     0.0000 nb         1 SK6      -0.758000
      2 C02          1.3240     0.0000     0.0000 ca         1 SK6       0.690200
      3 C03          2.0320     0.0000     1.1970 ca         1 SK6      -0.278300
      4 C04          1.3340     0.0010     2.3910 ca         1 SK6      -0.037300
      5 C05         -0.0540     0.0010     2.3470 ca         1 SK6      -0.261300
      6 C06         -0.6920     0.0010     1.1240 ca         1 SK6       0.452600
      7 N07          2.0120    -0.0010    -1.2080 nv         1 SK6      -1.085500
      8 C08          2.0640     0.0000     3.7100 c3         1 SK6      -0.048800
      9 C09         -2.1980     0.0010     1.0700 c3         1 SK6      -0.340700
     10 C10         -2.6780     1.1830     0.2250 c3         1 SK6      -0.084100
     11 C11         -4.1840     1.1830     0.1720 ca         1 SK6      -0.081300
     12 C12         -4.9070     1.8710     1.1270 ca         1 SK6      -0.105000
     13 C13         -6.2970     1.8770     1.0840 ca         1 SK6       0.132600
     14 C14         -6.9620     1.1910     0.0800 ca         1 SK6      -0.207000
     15 C15         -6.2320     0.4970    -0.8850 ca         1 SK6       0.028000
     16 C16         -4.8360     0.5020    -0.8360 ca         1 SK6      -0.131000
     17 N17         -7.0220     2.5730     2.0540 nu         1 SK6      -0.840600
     18 C18         -8.4870     2.5790     2.0100 c3         1 SK6       0.169800
     19 C19         -9.0290     3.4070     3.1750 c3         1 SK6      -0.379700
     20 C20        -10.5360     3.4140     3.1290 ca         1 SK6       0.426600
     21 N21        -11.1520     3.8090     2.0320 nb         1 SK6      -0.700000
     22 C22        -12.4680     3.8300     1.9470 ca         1 SK6       0.442200
     23 C23        -13.2530     3.4360     3.0140 ca         1 SK6      -0.243300
     24 C24        -12.6400     3.0140     4.1840 ca         1 SK6      -0.064000
     25 C25        -11.2540     2.9990     4.2350 ca         1 SK6      -0.291300
     26 C26         -6.9120    -0.2140    -1.9260 cg         1 SK6       0.242800
     27 N27         -7.4500    -0.7940    -2.7410 n1         1 SK6      -0.367800
     28 H03          3.1160    -0.0000     1.1860 ha         1 SK6       0.140000
     29 H05         -0.6250     0.0020     3.2680 ha         1 SK6       0.141000
     30 HN07         2.2280     0.8650    -1.6610 hn         1 SK6       0.432800
     31 HN0A         2.2690    -0.8680    -1.6370 hn         1 SK6       0.432800
     32 H08          1.4360     0.4490     4.4700 hc         1 SK6       0.046033
     33 H08A         2.9800     0.5710     3.6160 hc         1 SK6       0.046033
     34 H08B         2.3000    -1.0190     3.9910 hc         1 SK6       0.046033
     35 H09         -2.5870     0.6540     1.8420 hc         1 SK6       0.174200
     36 H09A        -2.5240     0.3550     0.0990 hc         1 SK6       0.174200
     37 H10         -2.3330     2.1080     0.6690 hc         1 SK6       0.079200
     38 H10A        -2.2810     1.0940    -0.7790 hc         1 SK6       0.079200
     39 H12         -4.3910     2.4090     1.9130 ha         1 SK6       0.152000
     40 H14         -8.0450     1.1950     0.0470 ha         1 SK6       0.130000
     41 H16         -4.2650    -0.0310    -1.5870 ha         1 SK6       0.144000
     42 HN17        -7.9750     2.8240     1.8820 hn         1 SK6       0.532800
     43 H18         -8.8180     3.0200     1.0780 h1         1 SK6       0.045700
     44 H18A        -8.8540     1.5620     2.0780 h1         1 SK6       0.045700
     45 H19         -8.7120     2.9640     4.1120 hc         1 SK6       0.183200
     46 H19A       -10.1120     3.4240     3.1330 hc         1 SK6       0.183200
     47 H22        -12.9460     4.1600     1.0330 h4         1 SK6       0.042100
     48 H23        -14.3330     3.4590     2.9290 ha         1 SK6       0.154000
     49 H24        -13.2420     2.7020     5.0290 ha         1 SK6       0.154000
     50 H25        -10.7340     2.6720     5.1270 ha         1 SK6       0.163000
@<TRIPOS>BOND
     1     1     2 ar
     2     1     6 ar
     3     2     3 ar
     4     2     7 1
     5     3     4 ar
     6     4     5 ar
     7     4     8 1
     8     5     6 ar
     9     6     9 1
    10     9    10 1
    11    10    11 1
    12    11    12 ar
    13    11    16 ar
    14    12    13 ar
    15    13    14 ar
    16    13    17 1
    17    14    15 ar
    18    15    16 ar
    19    15    26 1
    20    17    18 1
    21    18    19 1
    22    19    20 1
    23    20    21 ar
    24    20    25 ar
    25    21    22 ar
    26    22    23 ar
    27    23    24 ar
    28    24    25 ar
    29    26    27 3
    30     3    28 1
    31     5    29 1
    32     7    30 1
    33     7    31 1
    34     8    32 1
    35     8    33 1
    36     8    34 1
    37     9    35 1
    38     9    36 1
    39    10    37 1
    40    10    38 1
    41    12    39 1
    42    14    40 1
    43    16    41 1
    44    17    42 1
    45    18    43 1
    46    18    44 1
    47    19    45 1
    48    19    46 1
    49    22    47 1
    50    23    48 1
    51    24    49 1
    52    25    50 1
@<TRIPOS>SUBSTRUCTURE
     1 SK6         1 TEMP              0 ****  ****    0 ROOT
