@<TRIPOS>MOLECULE
molecule
   30    30     1     0     0
SMALL
bcc


@<TRIPOS>ATOM
      1 N1           0.0000     0.0000     0.0000 n          1 SK7      -0.394000
      2 C6          -0.7280     0.0000    -1.2720 c3         1 SK7       0.069300
      3 O1           1.9440    -0.0000    -1.0580 o          1 SK7      -0.667500
      4 O2           2.0370    -0.0020     3.3790 o          1 SK7      -0.633500
      5 N2           2.0390     0.0000     1.1530 ns         1 SK7      -0.559500
      6 C1           1.3450     0.0000     0.0000 c          1 SK7       0.815500
      7 C2           1.4000    -0.0010     2.3390 c          1 SK7       0.707700
      8 C3          -0.0090     0.0100     2.3710 cc         1 SK7      -0.228400
      9 C4          -0.7440     0.0220     3.6860 c3         1 SK7      -0.015900
     10 C5          -0.6980     0.0050     1.1900 cd         1 SK7       0.083600
     11 C11         -2.1670     0.0050     1.1880 cf         1 SK7      -0.367000
     12 C12         -2.8340    -1.0810     1.5730 c2         1 SK7       0.037600
     13 C14         -2.0890    -2.3580     1.8630 c3         1 SK7       0.140600
     14 C13         -4.3330    -1.0330     1.7190 c3         1 SK7       0.140600
     15 O4          -0.6930    -2.1590     1.6330 oh         1 SK7      -0.580300
     16 O3          -4.8010     0.2760     1.3900 oh         1 SK7      -0.580300
     17 H1          -1.5260     0.7310    -1.2310 h1         1 SK7       0.069033
     18 H2          -1.1470    -0.9830    -1.4480 h1         1 SK7       0.069033
     19 H3          -0.0480     0.2530    -2.0770 h1         1 SK7       0.069033
     20 H4           3.0400     0.0000     1.1290 hn         1 SK7       0.359500
     21 H5          -1.7360     0.4320     3.5420 hc         1 SK7       0.048367
     22 H6          -0.2010     0.6330     4.3980 hc         1 SK7       0.048367
     23 H7          -0.8230    -0.9890     4.0650 hc         1 SK7       0.048367
     24 H8          -1.6040    -0.4030     0.3580 ha         1 SK7       0.331000
     25 H11         -2.4540    -3.1440     1.2130 h1         1 SK7       0.045450
     26 H12         -2.2480    -2.6410     2.8960 h1         1 SK7       0.045450
     27 H13         -4.6040    -1.2680     2.7410 h1         1 SK7       0.045450
     28 H14         -4.7840    -1.7560     1.0500 h1         1 SK7       0.045450
     29 H15         -0.2530    -2.9920     1.6320 ho         1 SK7       0.403000
     30 H16         -5.7420     0.2970     1.4500 ho         1 SK7       0.403000
@<TRIPOS>BOND
     1    15    13 1
     2     9     8 1
     3    14    12 1
     4    14    16 1
     5     4     7 2
     6    12    13 1
     7    12    11 2
     8     8     7 1
     9     8    10 2
    10     7     5 1
    11    11    10 1
    12    10     1 1
    13     5     6 1
    14     1     6 1
    15     1     2 1
    16     6     3 2
    17     2    17 1
    18     2    18 1
    19     2    19 1
    20     5    20 1
    21     9    21 1
    22     9    22 1
    23     9    23 1
    24    11    24 1
    25    13    25 1
    26    13    26 1
    27    14    27 1
    28    14    28 1
    29    15    29 1
    30    16    30 1
@<TRIPOS>SUBSTRUCTURE
     1 SK7         1 TEMP              0 ****  ****    0 ROOT
