@<TRIPOS>MOLECULE
SK7
   30    30     1     0     0
SMALL
bcc


@<TRIPOS>ATOM
      1 N1           0.0000     0.0000     0.0000 n          1 SK7       0.065000
      2 C6          -0.7280     0.0000    -1.2720 c3         1 SK7       0.051300
      3 O1           1.9440    -0.0000    -1.0580 o          1 SK7      -0.722500
      4 O2           2.0370    -0.0020     3.3790 o          1 SK7      -0.677500
      5 N2           2.0390     0.0000     1.1530 ns         1 SK7      -0.125500
      6 C1           1.3450     0.0000     0.0000 c          1 SK7       0.585500
      7 C2           1.4000    -0.0010     2.3390 c          1 SK7       0.623700
      8 C3          -0.0090     0.0100     2.3710 cc         1 SK7      -0.259400
      9 C4          -0.7440     0.0220     3.6860 c3         1 SK7       0.089100
     10 C5          -0.6980     0.0050     1.1900 cd         1 SK7       0.002600
     11 C11         -2.1670     0.0050     1.1880 cf         1 SK7      -0.089000
     12 C12         -2.8340    -1.0810     1.5730 c2         1 SK7      -0.154400
     13 C14         -2.0890    -2.3580     1.8630 c3         1 SK7       0.281100
     14 C13         -4.3330    -1.0330     1.7190 c3         1 SK7       0.281100
     15 O4          -0.6930    -2.1590     1.6330 oh         1 SK7      -0.590300
     16 O3          -4.8010     0.2760     1.3900 oh         1 SK7      -0.590300
     17 H1          -1.2670    -0.9330    -1.3790 h1         1 SK7       0.028033
     18 H2          -1.4280     0.8260    -1.2870 h1         1 SK7       0.028033
     19 H3          -0.0250     0.1070    -2.0900 h1         1 SK7       0.028033
     20 H4           3.0400     0.0000     1.1290 hn         1 SK7       0.202500
     21 H5          -0.2200     0.6620     4.3860 hc         1 SK7       0.011367
     22 H6          -1.7490     0.3980     3.5350 hc         1 SK7       0.011367
     23 H7          -0.7910    -0.9850     4.0830 hc         1 SK7       0.011367
     24 H8          -2.7080     0.8960     0.8920 ha         1 SK7       0.141000
     25 H11         -2.2480    -2.6410     2.8960 h1         1 SK7      -0.003550
     26 H12         -2.4540    -3.1440     1.2130 h1         1 SK7      -0.003550
     27 H13         -4.7840    -1.7570     1.0500 h1         1 SK7      -0.003550
     28 H14         -4.6040    -1.2680     2.7410 h1         1 SK7      -0.003550
     29 H15         -0.2510    -2.9910     1.6420 ho         1 SK7       0.392500
     30 H16         -5.7430     0.2910     1.4280 ho         1 SK7       0.392500
@<TRIPOS>BOND
     1     1     2 1   
     2     1     6 1   
     3     1    10 1   
     4     2    17 1   
     5     2    18 1   
     6     2    19 1   
     7     3     6 2   
     8     4     7 2   
     9     5     6 1   
    10     5     7 1   
    11     5    20 1   
    12     7     8 1   
    13     8     9 1   
    14     8    10 2   
    15     9    21 1   
    16     9    22 1   
    17     9    23 1   
    18    10    11 1   
    19    11    12 2   
    20    11    24 1   
    21    12    13 1   
    22    12    14 1   
    23    13    15 1   
    24    13    25 1   
    25    13    26 1   
    26    14    16 1   
    27    14    27 1   
    28    14    28 1   
    29    15    29 1   
    30    16    30 1   
@<TRIPOS>SUBSTRUCTURE
     1 SK7         1 TEMP              0 ****  ****    0 ROOT
