@<TRIPOS>MOLECULE
SK8
   33    36     1     0     0
SMALL
bcc


@<TRIPOS>ATOM
      1 C1          0.0570   -0.0970    0.0400 ca        1 SK8     -0.085000
      2 C2          1.4460   -0.1500    0.0640 ca        1 SK8     -0.171000
      3 C3          2.1180   -0.1360    1.3000 ca        1 SK8      0.127900
      4 C4          1.3890   -0.0720    2.5020 ca        1 SK8     -0.171000
      5 C5         -0.0010   -0.0200    2.4600 ca        1 SK8     -0.085000
      6 C6         -0.6790   -0.0250    1.2320 ca        1 SK8     -0.128500
      7 C7         -2.1310    0.0190    1.1990 cc        1 SK8      0.382800
      8 C8         -2.9550    0.6770    0.2390 cd        1 SK8     -0.129600
      9 N9         -4.2660    0.3790    0.6170 na        1 SK8     -0.219900
     10 C10        -4.1980   -0.4100    1.7920 cd        1 SK8      0.475800
     11 N11        -2.9210   -0.6460    2.1540 nc        1 SK8     -0.620000
     12 S12        -5.7230   -0.8210    2.4160 ss        1 SK8     -0.188400
     13 C13        -6.5980    0.1050    1.1400 c3        1 SK8     -0.051300
     14 C14        -5.5850    0.7510    0.1800 c3        1 SK8      0.049300
     15 C15        -2.6070    1.5050   -0.8990 ca        1 SK8      0.021000
     16 C16        -1.6740    2.5450   -0.7630 ca        1 SK8     -0.233800
     17 C17        -1.3710    3.3260   -1.8910 ca        1 SK8      0.393200
     18 N18        -1.9270    3.1370   -3.1030 nb        1 SK8     -0.658000
     19 C19        -2.8200    2.1350   -3.2200 ca        1 SK8      0.393200
     20 C20        -3.1940    1.2960   -2.1560 ca        1 SK8     -0.233800
     21 F21         3.4710   -0.1870    1.3330 f         1 SK8     -0.141900
     22 H1         -0.4710   -0.1120   -0.9260 ha        1 SK8      0.149000
     23 H2          2.0230   -0.2080   -0.8700 ha        1 SK8      0.149500
     24 H3          1.9220   -0.0680    3.4630 ha        1 SK8      0.149500
     25 H4         -0.5700    0.0200    3.4020 ha        1 SK8      0.149000
     26 H5         -7.2240    0.8840    1.6320 h1        1 SK8      0.088200
     27 H6         -5.6910    1.8730    0.1890 h1        1 SK8      0.072700
     28 H7         -1.1870    2.7390    0.2030 ha        1 SK8      0.151500
     29 H8         -0.6400    4.1530   -1.8210 h4        1 SK8      0.026600
     30 H9         -3.2580    1.9970   -4.2250 h4        1 SK8      0.026600
     31 H10        -3.9200    0.4890   -2.3150 ha        1 SK8      0.151500
     32 H11        -7.2680   -0.5960    0.5900 h1        1 SK8      0.088200
     33 H12        -5.7510    0.3880   -0.8730 h1        1 SK8      0.072700
@<TRIPOS>BOND
     1    1    2 ar  
     2    1    6 ar  
     3    1   22 1   
     4    2    3 ar  
     5    2   23 1   
     6    3    4 ar  
     7    3   21 1   
     8    4    5 ar  
     9    4   24 1   
    10    5    6 ar  
    11    5   25 1   
    12    6    7 1   
    13    7    8 2   
    14    7   11 1   
    15    8    9 1   
    16    8   15 1   
    17    9   10 1   
    18    9   14 1   
    19   10   11 2   
    20   10   12 1   
    21   12   13 1   
    22   13   14 1   
    23   13   26 1   
    24   13   32 1   
    25   14   27 1   
    26   14   33 1   
    27   15   16 ar  
    28   15   20 ar  
    29   16   17 ar  
    30   16   28 1   
    31   17   18 ar  
    32   17   29 1   
    33   18   19 ar  
    34   19   20 ar  
    35   19   30 1   
    36   20   31 1   
@<TRIPOS>SUBSTRUCTURE
     1 SK8         1 TEMP              0 ****  ****    0 ROOT
