@<TRIPOS>MOLECULE
molecule
   33    36     1     0     0
SMALL
bcc


@<TRIPOS>ATOM
      1 C1           0.0000     0.0000     0.0000 ca         1 SK8      -0.082000
      2 C2           1.3800     0.0000     0.0000 ca         1 SK8      -0.173000
      3 C3           2.0750     0.0000     1.1990 ca         1 SK8       0.135900
      4 C4           1.3880     0.0000     2.4030 ca         1 SK8      -0.173000
      5 C5           0.0080     0.0010     2.4130 ca         1 SK8      -0.082000
      6 C6          -0.6960     0.0060     1.2080 ca         1 SK8      -0.127500
      7 C7          -2.1770     0.0060     1.2140 cc         1 SK8       0.417800
      8 C8          -2.9930     0.6480     0.3090 cd         1 SK8      -0.165600
      9 N9          -4.3120     0.3780     0.6960 na         1 SK8      -0.206900
     10 C10         -4.2330    -0.4000     1.7970 cd         1 SK8       0.527800
     11 N11         -2.9660    -0.6230     2.0990 nc         1 SK8      -0.654000
     12 S12         -5.8580    -0.8010     2.3730 ss         1 SK8      -0.249400
     13 C13         -6.7530     0.1130     1.0830 c3         1 SK8      -0.027300
     14 C14         -5.6490     0.7210     0.2170 c3         1 SK8       0.036300
     15 C15         -2.5610     1.4620    -0.8420 ca         1 SK8       0.023000
     16 C16         -1.5350     2.4080    -0.7130 ca         1 SK8      -0.245300
     17 C17         -1.1650     3.1460    -1.8160 ca         1 SK8       0.421200
     18 N18         -1.7620     2.9710    -2.9810 nb         1 SK8      -0.690000
     19 C19         -2.7320     2.0910    -3.1480 ca         1 SK8       0.421200
     20 C20         -3.1620     1.3050    -2.1000 ca         1 SK8      -0.245300
     21 F21          3.4260    -0.0010     1.1950 f          1 SK8      -0.140900
     22 H1          -0.5420     0.0020    -0.9380 ha         1 SK8       0.150000
     23 H2           1.9210    -0.0020    -0.9390 ha         1 SK8       0.147500
     24 H3           1.9360    -0.0010     3.3380 ha         1 SK8       0.147500
     25 H4          -0.5270     0.0040     3.3550 ha         1 SK8       0.150000
     26 H5          -7.3260    -0.5870     0.4860 h1         1 SK8       0.093700
     27 H6          -5.7480     1.7980     0.2690 h1         1 SK8       0.075200
     28 H7          -1.0410     2.5570     0.2390 ha         1 SK8       0.145500
     29 H8          -0.3740     3.8800    -1.7270 h4         1 SK8       0.027100
     30 H9          -3.1910     1.9800    -4.1230 h4         1 SK8       0.027100
     31 H10         -3.9590     0.5850    -2.2440 ha         1 SK8       0.145500
     32 H11         -7.3210     0.9120     1.5440 h1         1 SK8       0.093700
     33 H12         -5.7530     0.3120    -0.7810 h1         1 SK8       0.075200
@<TRIPOS>BOND
     1    12    10 1
     2    12    13 1
     3    11    10 2
     4    11     7 1
     5     4     5 ar
     6     4     3 ar
     7     5     6 ar
     8    10     9 1
     9    13    14 1
    10     7     6 1
    11     7     8 2
    12    21     3 1
    13     3     2 ar
    14     6     1 ar
    15     9    14 1
    16     9     8 1
    17     8    15 1
    18     1     2 ar
    19    15    16 ar
    20    15    20 ar
    21    16    17 ar
    22    20    19 ar
    23    17    18 ar
    24    19    18 ar
    25     1    22 1
    26     2    23 1
    27     4    24 1
    28     5    25 1
    29    13    26 1
    30    14    27 1
    31    16    28 1
    32    17    29 1
    33    19    30 1
    34    20    31 1
    35    13    32 1
    36    14    33 1
@<TRIPOS>SUBSTRUCTURE
     1 SK8         1 TEMP              0 ****  ****    0 ROOT
