@<TRIPOS>MOLECULE
SKA
   21    22     1     0     0
SMALL
bcc


@<TRIPOS>ATOM
      1 Cl4          0.0000     0.0000     0.0000 cl         1 SKA      -0.006400
      2 C4           1.7360     0.0000     0.0000 ca         1 SKA      -0.035600
      3 C5           2.4270     0.0000     1.2020 ca         1 SKA      -0.066300
      4 C11          1.6450     0.0020     2.4890 c3         1 SKA       0.193100
      5 N10          2.4720    -0.4740     3.6000 n7         1 SKA      -0.566200
      6 C9           3.6590     0.3920     3.6430 c3         1 SKA       0.130800
      7 C8           4.5870     0.0110     2.4880 c3         1 SKA       0.035900
      8 C6           3.8060     0.0060     1.1980 ca         1 SKA      -0.061300
      9 C1           4.4960     0.0060    -0.0040 ca         1 SKA      -0.092000
     10 C2           3.8080     0.0000    -1.2010 ca         1 SKA      -0.090000
     11 C3           2.4240    -0.0060    -1.2000 ca         1 SKA      -0.041600
     12 Cl3          1.5550    -0.0140    -2.7010 cl         1 SKA      -0.007400
     13 H111         0.7850    -0.6480     2.3820 h1         1 SKA       0.021200
     14 H112         1.3120     1.0110     2.7010 h1         1 SKA       0.021200
     15 H10          1.9630    -0.3850     4.4570 hn         1 SKA       0.255800
     16 H91          4.1780     0.2300     4.5790 h1         1 SKA       0.012200
     17 H92          3.3470     1.4220     3.5180 h1         1 SKA       0.012200
     18 H81          4.9750    -0.9840     2.6660 hc         1 SKA       0.029700
     19 H82          5.3750     0.7510     2.4160 hc         1 SKA       0.029700
     20 H1           5.5790     0.0110    -0.0040 ha         1 SKA       0.110000
     21 H2           4.3500    -0.0050    -2.1390 ha         1 SKA       0.117000
@<TRIPOS>BOND
     1     1     2 1   
     2     2     3 ar  
     3     2    11 ar  
     4     3     4 1   
     5     3     8 ar  
     6     4     5 1   
     7     4    13 1   
     8     4    14 1   
     9     5     6 1   
    10     5    15 1   
    11     6     7 1   
    12     6    16 1   
    13     6    17 1   
    14     7     8 1   
    15     7    18 1   
    16     7    19 1   
    17     8     9 ar  
    18     9    10 ar  
    19     9    20 1   
    20    10    11 ar  
    21    10    21 1   
    22    11    12 1   
@<TRIPOS>SUBSTRUCTURE
     1 SKA         1 TEMP              0 ****  ****    0 ROOT
