@<TRIPOS>MOLECULE
SKD
   36    37     1     0     0
SMALL
bcc


@<TRIPOS>ATOM
      1 C1           1.5070     0.0000     0.0000 c          1 SKD       0.984600
      2 C2           0.0000     0.0000     0.0000 c3         1 SKD       0.269600
      3 C3          -0.5590     0.0000     1.4310 c3         1 SKD      -0.090400
      4 C4          -2.0790    -0.1820     1.3690 c3         1 SKD       0.172100
      5 C5          -2.6720     0.8450     0.3980 c3         1 SKD      -0.025300
      6 C6          -1.9180     0.7520    -0.9380 c3         1 SKD       0.125100
      7 C7          -1.7680    -0.7470    -1.2900 c3         1 SKD       0.113100
      8 C8          -1.7100    -0.9350    -2.8070 c3         1 SKD       0.170100
      9 C9          -1.4900    -2.4130    -3.1300 c3         1 SKD       0.192400
     10 C11         -3.3390     4.0970     2.3050 c3         1 SKD      -0.069100
     11 N5          -2.5220     2.1910     0.9560 ns         1 SKD      -0.163900
     12 O1A          2.1120    -0.9040    -0.5240 o          1 SKD      -0.869800
     13 O1B          2.1780     1.0080     0.5810 o          1 SKD      -0.869800
     14 O4          -2.3830    -1.5020     0.9120 oh         1 SKD      -0.563800
     15 O6          -0.5460     1.1510    -0.6800 os         1 SKD      -0.389600
     16 O7          -0.5250    -1.1500    -0.6880 os         1 SKD      -0.367600
     17 O8          -2.9400    -0.4980    -3.3880 oh         1 SKD      -0.598800
     18 O9          -1.4360    -2.5890    -4.5470 oh         1 SKD      -0.607800
     19 O10         -4.4950     2.0680     1.9630 o          1 SKD      -0.681100
     20 H31         -0.3250     0.9420     1.9120 hc         1 SKD       0.041700
     21 H32         -0.1180    -0.8140     1.9930 hc         1 SKD       0.041700
     22 H4          -2.5020    -0.0340     2.3550 h1         1 SKD       0.000700
     23 H5          -3.7220     0.6320     0.2390 h1         1 SKD       0.060700
     24 H6          -2.3830     1.3270    -1.7300 h1         1 SKD       0.050700
     25 H7          -2.5900    -1.3150    -0.8710 h1         1 SKD       0.074700
     26 H8          -0.8920    -0.3510    -3.2120 h1         1 SKD       0.027700
     27 H91         -0.5570    -2.7440    -2.6890 h1         1 SKD       0.006700
     28 H92         -2.3080    -2.9970    -2.7240 h1         1 SKD       0.006700
     29 H111        -4.1980     4.3300     2.9220 hc         1 SKD       0.018033
     30 H112        -2.4400     4.1370     2.9080 hc         1 SKD       0.018033
     31 H113        -3.2660     4.8170     1.5000 hc         1 SKD       0.018033
     32 HN5         -1.7190     2.7420     0.7240 hn         1 SKD       0.199500
     33 HO4         -2.7120    -2.0150     1.6310 ho         1 SKD       0.368000
     34 HO8         -2.7690    -0.1070    -4.2290 ho         1 SKD       0.390000
     35 HO9         -1.1870    -3.4770    -4.7440 ho         1 SKD       0.382000
     36 C10         -3.4930     2.7110     1.7320 c          1 SKD       0.563100
@<TRIPOS>BOND
     1     1     2 1   
     2     1    12 1   
     3     1    13 1   
     4     2     3 1   
     5     2    15 1   
     6     2    16 1   
     7     3     4 1   
     8     3    20 1   
     9     3    21 1   
    10     4     5 1   
    11     4    14 1   
    12     4    22 1   
    13     5     6 1   
    14     5    11 1   
    15     5    23 1   
    16     6     7 1   
    17     6    15 1   
    18     6    24 1   
    19     7     8 1   
    20     7    16 1   
    21     7    25 1   
    22     8     9 1   
    23     8    17 1   
    24     8    26 1   
    25     9    18 1   
    26     9    27 1   
    27     9    28 1   
    28    10    29 1   
    29    10    30 1   
    30    10    31 1   
    31    10    36 1   
    32    11    32 1   
    33    11    36 1   
    34    14    33 1   
    35    17    34 1   
    36    18    35 1   
    37    19    36 2   
@<TRIPOS>SUBSTRUCTURE
     1 SKD         1 TEMP              0 ****  ****    0 ROOT
