@<TRIPOS>MOLECULE
molecule
   40    42     1     0     0
SMALL
bcc


@<TRIPOS>ATOM
      1 S            0.0000     0.0000     0.0000 sy         1 SKE       1.222200
      2 C1          -5.1690    -4.6360    -3.4650 cc         1 SKE       0.783400
      3 F1          -5.5460    -8.9740    -3.4000 f          1 SKE      -0.124400
      4 N1          -6.4160    -4.0860    -3.2550 nv         1 SKE      -1.037500
      5 O1           1.4210     0.0000     0.0000 o          1 SKE      -0.525800
      6 C2          -3.0230    -4.9600    -3.4010 cd         1 SKE       0.820900
      7 F2          -5.1210    -6.6830    -7.5580 f          1 SKE      -0.124400
      8 N2          -4.0290    -4.1690    -3.0050 nd         1 SKE      -0.817000
      9 O2          -0.7780     0.0000     1.1900 o          1 SKE      -0.525800
     10 C3          -1.2810    -3.6450    -2.3620 ca         1 SKE       0.276600
     11 N3          -1.6770    -4.7670    -3.0960 nu         1 SKE      -0.736300
     12 O3          -6.9580    -6.2280    -4.8670 o          1 SKE      -0.494100
     13 C4          -0.0270    -3.0850    -2.5720 ca         1 SKE      -0.169000
     14 N4          -0.4680     1.3330    -0.8640 nz         1 SKE      -0.805500
     15 C5           0.3600    -1.9740    -1.8500 ca         1 SKE      -0.005500
     16 N5          -3.5060    -5.9440    -4.1200 nc         1 SKE      -0.547800
     17 C6          -0.4980    -1.4190    -0.9190 ca         1 SKE      -0.376500
     18 N6          -4.8970    -5.7640    -4.1810 n          1 SKE      -0.059500
     19 C7          -1.7470    -1.9740    -0.7080 ca         1 SKE      -0.005500
     20 C8          -2.1400    -3.0850    -1.4270 ca         1 SKE      -0.169000
     21 C9          -5.7870    -6.5500    -4.8210 c          1 SKE       0.615500
     22 C10         -5.3390    -7.7980    -5.4630 ca         1 SKE      -0.225600
     23 C11         -5.2360    -8.9760    -4.7150 ca         1 SKE       0.200900
     24 C12         -4.8150   -10.1440    -5.3260 ca         1 SKE      -0.180500
     25 C13         -4.4970   -10.1470    -6.6720 ca         1 SKE      -0.051000
     26 C14         -4.5970    -8.9880    -7.4190 ca         1 SKE      -0.180500
     27 C15         -5.0200    -7.8140    -6.8260 ca         1 SKE       0.200900
     28 HN1         -6.7770    -3.4070    -3.8950 hn         1 SKE       0.465800
     29 HN1A        -6.9410    -4.3340    -2.4400 hn         1 SKE       0.465800
     30 HN3         -0.9990    -5.4470    -3.3760 hn         1 SKE       0.487800
     31 H4           0.6460    -3.5200    -3.3010 ha         1 SKE       0.182500
     32 HN4         -0.0190     1.3260    -1.7580 hn         1 SKE       0.489800
     33 HN4A        -1.4610     1.3190    -0.9880 hn         1 SKE       0.489800
     34 H5           1.3380    -1.5370    -2.0130 ha         1 SKE       0.155500
     35 H7          -2.4180    -1.5370     0.0220 ha         1 SKE       0.155500
     36 H8          -3.1190    -3.5200    -1.2610 ha         1 SKE       0.182500
     37 H12         -4.7340   -11.0570    -4.7480 ha         1 SKE       0.162000
     38 H13         -4.1660   -11.0650    -7.1440 ha         1 SKE       0.155000
     39 H14         -4.3450    -9.0010    -8.4720 ha         1 SKE       0.162000
     40 H43         -0.2120     2.1620    -0.3630 hn         1 SKE       0.489800
@<TRIPOS>BOND
     1    17     1 1
     2     9     1 2
     3     1    14 1
     4     1     5 2
     5     4     2 1
     6     2    18 1
     7     2     8 2
     8    23     3 1
     9     4    28 1
    10     4    29 1
    11     8     6 1
    12    16     6 2
    13     6    11 1
    14     7    27 1
    15    11    10 1
    16    13    10 ar
    17    10    20 ar
    18    11    30 1
    19    12    21 2
    20    13    15 ar
    21    13    31 1
    22    14    32 1
    23    14    33 1
    24    15    17 ar
    25    15    34 1
    26    18    16 1
    27    17    19 ar
    28    21    18 1
    29    20    19 ar
    30    19    35 1
    31    20    36 1
    32    21    22 1
    33    27    22 ar
    34    22    23 ar
    35    23    24 ar
    36    25    24 ar
    37    24    37 1
    38    26    25 ar
    39    25    38 1
    40    27    26 ar
    41    26    39 1
    42    40    14 1
@<TRIPOS>SUBSTRUCTURE
     1 SKE         1 TEMP              0 ****  ****    0 ROOT
