@<TRIPOS>MOLECULE
molecule
   27    28     1     0     0
SMALL
bcc


@<TRIPOS>ATOM
      1 C4           0.0000     0.0000     0.0000 ca         1 SKF      -0.131000
      2 C5           1.3800     0.0000     0.0000 ca         1 SKF      -0.037000
      3 C6           2.0680     0.0000     1.1990 ca         1 SKF      -0.345500
      4 C7           1.3750    -0.0060     2.3910 ca         1 SKF      -0.027000
      5 S            3.8300     0.0000     1.2030 sy         1 SKF       1.231200
      6 C8          -0.0120    -0.0010     2.3930 ca         1 SKF      -0.076300
      7 C9          -0.6960    -0.0000     1.1970 ca         1 SKF       0.037700
      8 O1           4.2200    -0.5250    -0.0580 o          1 SKF      -0.522800
      9 O2           4.2120    -0.5270     2.4660 o          1 SKF      -0.522800
     10 N            4.3250     1.5790     1.2060 nz         1 SKF      -0.806500
     11 C1          -0.7350    -0.0030     3.7140 c3         1 SKF       0.189100
     12 C2          -2.7430    -0.3810     2.5450 c3         1 SKF       0.140800
     13 C3          -2.2040     0.0020     1.1660 c3         1 SKF      -0.050100
     14 N1          -2.1080     0.4790     3.5540 n7         1 SKF      -0.797200
     15 HC4         -0.5400     0.0020    -0.9390 ha         1 SKF       0.165000
     16 HC5          1.9210    -0.0740    -0.9350 ha         1 SKF       0.158000
     17 HC7          1.9160    -0.0190     3.3290 ha         1 SKF       0.154000
     18 H1N          5.3250     1.6150     1.2050 hn         1 SKF       0.491800
     19 H2N          3.9740     2.0400     0.3900 hn         1 SKF       0.491800
     20 HC11        -0.7560    -1.0120     4.1060 h1         1 SKF       0.056700
     21 HC12        -0.2110     0.6440     4.4070 h1         1 SKF       0.056700
     22 HC21        -3.8130    -0.2130     2.5630 h1         1 SKF       0.055200
     23 HC22        -2.4850    -1.4130     2.7490 h1         1 SKF       0.055200
     24 HC31        -2.5500    -0.7170     0.4330 hc         1 SKF       0.081700
     25 HC32        -2.5580     0.9920     0.9040 hc         1 SKF       0.081700
     26 HN1         -2.5970     0.3900     4.4230 hn         1 SKF       0.377800
     27 HN3          3.9820     2.0350     2.0280 hn         1 SKF       0.491800
@<TRIPOS>BOND
     1     1     2 ar
     2     1     7 ar
     3     1    15 1
     4     2     3 ar
     5     2    16 1
     6     3     4 ar
     7     3     5 1
     8     4     6 ar
     9     4    17 1
    10     5     8 2
    11     5     9 2
    12     5    10 1
    13     6     7 ar
    14     6    11 1
    15     7    13 1
    16    10    18 1
    17    10    19 1
    18    11    14 1
    19    11    20 1
    20    11    21 1
    21    12    13 1
    22    12    14 1
    23    12    22 1
    24    12    23 1
    25    13    24 1
    26    13    25 1
    27    14    26 1
    28    27    10 1
@<TRIPOS>SUBSTRUCTURE
     1 SKF         1 TEMP              0 ****  ****    0 ROOT
