@<TRIPOS>MOLECULE
molecule
   53    55     1     0     0
SMALL
bcc


@<TRIPOS>ATOM
      1 N1           2.3650    -2.1240    -1.2210 n1         1 SKK      -0.338800
      2 N2           0.0000     0.0000     0.0000 n          1 SKK      -0.296800
      3 N3          -2.8500     0.7680    -2.2960 n7         1 SKK      -1.005200
      4 N4          -4.2080     1.4840    -4.8460 ns         1 SKK      -0.295900
      5 N5          -4.7400    -0.2100    -7.5390 nc         1 SKK      -0.633000
      6 N6          -2.5250     0.8810    -7.8320 na         1 SKK       0.152200
      7 N7          -1.7540     0.5850    -8.9190 nd         1 SKK      -0.618100
      8 O8          -2.0940    -0.0290    -1.1480 o          1 SKK       0.538900
      9 O9          -6.1140     2.2690    -5.3220 o          1 SKK      -0.259100
     10 C10          1.9710    -1.2050    -0.6800 c1         1 SKK       0.201700
     11 C11          1.4700     0.0000     0.0000 c3         1 SKK       0.162800
     12 C12          1.9290     0.0000     1.4740 c3         1 SKK      -0.097400
     13 C13          0.6950     0.5700     2.2210 c3         1 SKK      -0.094400
     14 C14         -0.4720    -0.0270     1.3960 c3         1 SKK       0.037000
     15 C15         -0.7860     0.0250    -1.0940 c          1 SKK      -0.126900
     16 C16         -2.2850     0.0270    -0.9460 c3         1 SKK       0.706800
     17 C17         -3.6310    -0.4660    -3.1250 c3         1 SKK       0.123200
     18 C18         -2.4910    -0.8510    -4.2870 c3         1 SKK      -0.084100
     19 C19         -4.0850    -1.3710    -2.4540 c3         1 SKK      -0.084100
     20 C20         -4.6420     0.4460    -3.9080 c3         1 SKK       0.055000
     21 C21         -5.2090     2.4710    -5.0480 c          1 SKK       0.477700
     22 C22         -3.7750     1.5350    -5.8190 cd         1 SKK       0.253100
     23 C23         -2.6520     1.5120    -6.8060 cc         1 SKK      -0.085300
     24 C24         -4.6130     0.7530    -6.2450 cd         1 SKK       0.066200
     25 C25         -3.7720    -0.0670    -8.1530 cd         1 SKK       0.358500
     26 C26         -3.6270    -0.7530    -9.2750 cc         1 SKK      -0.527600
     27 C27         -2.2210    -0.2780    -9.7780 cc         1 SKK       0.441600
     28 C28         -1.7550    -1.0490   -11.1860 c3         1 SKK      -0.041400
     29 H1          -3.5150     1.4690    -2.0380 hn         1 SKK       0.329800
     30 H3          -3.5720     1.2570    -5.5840 hn         1 SKK      -0.029500
     31 H4           1.8360     0.8900    -0.4980 h1         1 SKK       0.102700
     32 H5           2.6690     0.7740     1.6350 hc         1 SKK       0.069700
     33 H6           2.3270    -0.9710     1.7410 hc         1 SKK       0.069700
     34 H7           0.5950     0.0990     3.1910 hc         1 SKK       0.066200
     35 H8           0.7860     1.6450     2.3280 hc         1 SKK       0.066200
     36 H9          -0.6330    -1.0500     1.7160 h1         1 SKK       0.078200
     37 H10         -1.3840     0.5500     1.4930 h1         1 SKK       0.078200
     38 H11         -2.5750     0.5840    -0.0630 h1         1 SKK      -0.397300
     39 H12         -2.6590    -0.9880    -0.8900 h1         1 SKK      -0.397300
     40 H13         -1.8610    -1.6540    -3.9240 hc         1 SKK       0.058033
     41 H14         -2.9920    -1.1660    -5.1940 hc         1 SKK       0.058033
     42 H15         -1.8800     0.0190    -4.4960 hc         1 SKK       0.058033
     43 H16         -4.8250    -1.9120    -3.0310 hc         1 SKK       0.058033
     44 H17         -3.2860    -2.0460    -2.1700 hc         1 SKK       0.058033
     45 H18         -4.5480    -0.9630    -1.5640 hc         1 SKK       0.058033
     46 H19         -5.2530     0.9390    -3.1630 h1         1 SKK       0.056700
     47 H20         -5.2910    -0.2200    -4.4640 h1         1 SKK       0.056700
     48 H21         -2.7010     2.2780    -7.5700 h4         1 SKK       0.186000
     49 H22         -5.6120     1.1710    -6.2220 h4         1 SKK      -0.001900
     50 H23         -4.3190    -0.8400   -10.1030 ha         1 SKK       0.166000
     51 H24         -2.4430    -0.7930   -11.9830 hc         1 SKK       0.054700
     52 H25         -1.7660    -2.1220   -11.0310 hc         1 SKK       0.054700
     53 H26         -0.7550    -0.7340   -11.4570 hc         1 SKK       0.054700
@<TRIPOS>BOND
     1    26    27 1
     2    26    25 2
     3    28    27 1
     4    27     7 2
     5     5    25 1
     6     5    24 2
     7    25     6 1
     8     7     6 1
     9    24    22 1
    10     6    23 1
    11    22    23 2
    12    22    21 1
    13    21     9 2
    14    21     4 1
    15     4    20 1
    16    20    17 1
    17    18    17 1
    18    17    19 1
    19    17     3 1
    20     3    16 1
    21    16    15 1
    22     8    15 2
    23     1    10 3
    24    15     2 1
    25    10    11 1
    26     2    14 1
    27     2    11 1
    28    14    13 1
    29    11    12 1
    30    12    13 1
    31     3    29 1
    32     4    30 1
    33    11    31 1
    34    12    32 1
    35    12    33 1
    36    13    34 1
    37    13    35 1
    38    14    36 1
    39    14    37 1
    40    16    38 1
    41    16    39 1
    42    18    40 1
    43    18    41 1
    44    18    42 1
    45    19    43 1
    46    19    44 1
    47    19    45 1
    48    20    46 1
    49    20    47 1
    50    23    48 1
    51    24    49 1
    52    26    50 1
    53    28    51 1
    54    28    52 1
    55    28    53 1
@<TRIPOS>SUBSTRUCTURE
     1 SKK         1 TEMP              0 ****  ****    0 ROOT
