@<TRIPOS>MOLECULE
molecule
   21    21     1     0     0
SMALL
bcc


@<TRIPOS>ATOM
      1 O12          0.0000     0.0000     0.0000 oh         1 SKM      -0.599800
      2 C8           1.4280     0.0000     0.0000 c3         1 SKM       0.145100
      3 C6           1.9530     0.0000     1.4410 c3         1 SKM       0.134100
      4 O7           1.3470     1.0680     2.1720 oh         1 SKM      -0.618800
      5 C5           3.4710     0.1940     1.4100 c3         1 SKM      -0.050200
      6 C4           4.0950    -0.7660     0.4390 ce         1 SKM      -0.112400
      7 C1           5.5400    -1.0090     0.5390 c          1 SKM       0.874800
      8 O2           6.2670    -0.3770     1.4820 o          1 SKM      -0.839800
      9 O3           6.0810    -1.7790    -0.2300 o          1 SKM      -0.839800
     10 C10          3.4220    -1.4020    -0.4960 c2         1 SKM      -0.241200
     11 C9           1.9420    -1.2570    -0.7040 c3         1 SKM       0.175300
     12 O11          1.2730    -2.4000    -0.1680 oh         1 SKM      -0.594800
     13 H12         -0.3140     0.6830    -0.5680 ho         1 SKM       0.384000
     14 H8           1.7950     0.8780    -0.5170 h1         1 SKM       0.043700
     15 H6           1.7190    -0.9480     1.9110 h1         1 SKM       0.056700
     16 HO7          1.1120     0.7650     3.0330 ho         1 SKM       0.393000
     17 H51          3.8740     0.0150     2.3990 hc         1 SKM       0.068700
     18 H52          3.6950     1.2090     1.1040 hc         1 SKM       0.068700
     19 H10          3.9670    -2.0690    -1.1530 ha         1 SKM       0.150000
     20 H9           1.7370    -1.1810    -1.7650 h1         1 SKM       0.016700
     21 H11          1.0640    -2.9990    -0.8660 ho         1 SKM       0.386000
@<TRIPOS>BOND
     1     1     2 1
     2     1    13 1
     3     2     3 1
     4     2    11 1
     5     2    14 1
     6     3     4 1
     7     3     5 1
     8     3    15 1
     9     4    16 1
    10     5     6 1
    11     5    17 1
    12     5    18 1
    13     6     7 1
    14     6    10 2
    15     7     8 1
    16     7     9 1
    17    10    11 1
    18    10    19 1
    19    11    12 1
    20    11    20 1
    21    12    21 1
@<TRIPOS>SUBSTRUCTURE
     1 SKM         1 TEMP              0 ****  ****    0 ROOT
