@<TRIPOS>MOLECULE
SKM
   21    21     1     0     0
SMALL
bcc


@<TRIPOS>ATOM
      1 O12        -0.0130    0.0120   -0.1790 oh        1 SKM     -0.600800
      2 C8          1.4020   -0.0030   -0.0840 c3        1 SKM      0.080100
      3 C6          1.8800   -0.0850    1.3750 c3        1 SKM      0.097100
      4 O7          1.2560    0.9440    2.1330 oh        1 SKM     -0.619800
      5 C5          3.3990   -0.0170    1.4370 c3        1 SKM     -0.072200
      6 C4          4.0510   -0.8710    0.4120 ce        1 SKM     -0.138400
      7 C1          5.5420   -1.1190    0.6300 c         1 SKM      0.902800
      8 O2          6.0120   -0.8600    1.7750 o         1 SKM     -0.827800
      9 O3          6.2200   -1.5640   -0.3350 o         1 SKM     -0.827800
     10 C10         3.3960   -1.3900   -0.6340 c2        1 SKM     -0.253200
     11 C9          1.9380   -1.1960   -0.8980 c3        1 SKM      0.186300
     12 O11         1.1960   -2.3800   -0.6420 oh        1 SKM     -0.595800
     13 H12        -0.3430    0.4220    0.6310 ho        1 SKM      0.403000
     14 H8          1.7900    0.9500   -0.5440 h1        1 SKM      0.035700
     15 H6          1.4970   -1.0350    1.8440 h1        1 SKM      0.073700
     16 HO7         1.7120    1.7680    1.9250 ho        1 SKM      0.397000
     17 H51         3.7600   -0.3310    2.4540 hc        1 SKM      0.070700
     18 H52         3.7390    1.0440    1.2860 hc        1 SKM      0.070700
     19 H10         3.9350   -2.0140   -1.3650 ha        1 SKM      0.154000
     20 H9          1.7480   -1.0000   -1.9920 h1        1 SKM      0.069700
     21 H11         1.4330   -2.6740    0.2460 ho        1 SKM      0.394000
@<TRIPOS>BOND
     1    1    2 1   
     2    1   13 1   
     3    2    3 1   
     4    2   11 1   
     5    2   14 1   
     6    3    4 1   
     7    3    5 1   
     8    3   15 1   
     9    4   16 1   
    10    5    6 1   
    11    5   17 1   
    12    5   18 1   
    13    6    7 1   
    14    6   10 2   
    15    7    8 1   
    16    7    9 1   
    17   10   11 1   
    18   10   19 1   
    19   11   12 1   
    20   11   20 1   
    21   12   21 1   
@<TRIPOS>SUBSTRUCTURE
     1 SKM         1 TEMP              0 ****  ****    0 ROOT
