@<TRIPOS>MOLECULE
molecule
   47    48     1     0     0
SMALL
bcc


@<TRIPOS>ATOM
      1 N02          0.0000     0.0000     0.0000 nv         1 SKO      -1.014500
      2 C02          1.3900     0.0000     0.0000 ca         1 SKO       0.711200
      3 C03          2.0800     0.0000     1.2080 ca         1 SKO      -0.331300
      4 C04          3.4630     0.0000     1.1940 ca         1 SKO      -0.004300
      5 C07          4.2460    -0.0010     2.4810 c3         1 SKO      -0.049800
      6 C05          4.1130     0.0000    -0.0330 ca         1 SKO      -0.313300
      7 N01          2.0460    -0.0050    -1.1500 nb         1 SKO      -0.770000
      8 C06          3.3660     0.0010    -1.1940 ca         1 SKO       0.480600
      9 C08          4.0650     0.0020    -2.5290 c3         1 SKO      -0.120700
     10 C09          3.5700    -1.1800    -3.3650 c3         1 SKO      -0.119700
     11 C12          4.2690    -1.1780    -4.7010 ca         1 SKO       0.473600
     12 C13          4.9490    -2.3070    -5.1140 ca         1 SKO      -0.311300
     13 C14          5.5910    -2.3000    -6.3440 ca         1 SKO      -0.053000
     14 C15          5.5260    -1.1550    -7.1180 ca         1 SKO      -0.326300
     15 N11          4.2190    -0.1020    -5.4610 nb         1 SKO      -0.758000
     16 C16          4.8230    -0.0550    -6.6380 ca         1 SKO       0.706200
     17 N17          4.7490     1.1030    -7.4050 nh         1 SKO      -0.834300
     18 C17          5.3160     1.1240    -8.7550 c3         1 SKO       0.234100
     19 C18          4.1050     2.3010    -6.8620 c3         1 SKO       0.239800
     20 C19          5.1460     3.1540    -6.1350 c3         1 SKO       0.132800
     21 N20          4.5000     4.3560    -5.5900 n7         1 SKO      -0.816200
     22 C21          5.4720     5.2020    -4.8840 c3         1 SKO       0.149100
     23 H021        -0.5000     0.0310    -0.8660 hn         1 SKO       0.438300
     24 H022        -0.5000    -0.0470     0.8650 hn         1 SKO       0.438300
     25 H03          1.5470     0.1720     2.1360 ha         1 SKO       0.132000
     26 H071         3.5650     0.0940     3.3180 hc         1 SKO       0.046033
     27 H072         4.9390     0.8310     2.4830 hc         1 SKO       0.046033
     28 H073         4.7970    -0.9300     2.5680 hc         1 SKO       0.046033
     29 H05          5.1950     0.0030    -0.0790 ha         1 SKO       0.136000
     30 H081         5.1340    -0.0860    -2.3770 hc         1 SKO       0.066200
     31 H082         3.8490     0.9280    -3.0490 hc         1 SKO       0.066200
     32 H091         3.7850    -2.1060    -2.8460 hc         1 SKO       0.065200
     33 H092         2.5010    -1.0920    -3.5170 hc         1 SKO       0.065200
     34 H13          4.9810    -3.1880    -4.4840 ha         1 SKO       0.136000
     35 H14          6.1310    -3.1730    -6.6920 ha         1 SKO       0.132000
     36 H15          6.0170    -1.1150    -8.0830 ha         1 SKO       0.135000
     37 H171         6.3790     0.9220    -8.7040 h1         1 SKO       0.036033
     38 H172         5.1550     2.0990    -9.1990 h1         1 SKO       0.036033
     39 H173         4.8330     0.3670    -9.3610 h1         1 SKO       0.036033
     40 H181         3.6690     2.8740    -7.6700 h1         1 SKO       0.064200
     41 H182         3.3280     2.0090    -6.1660 h1         1 SKO       0.064200
     42 H191         5.5830     2.5810    -5.3270 h1         1 SKO       0.037200
     43 H192         5.9230     3.4460    -6.8320 h1         1 SKO       0.037200
     44 H20          4.0830     4.8780    -6.3350 hn         1 SKO       0.346800
     45 H211         6.2240     5.5480    -5.5820 h1         1 SKO       0.030367
     46 H212         4.9620     6.0540    -4.4510 h1         1 SKO       0.030367
     47 H213         5.9460     4.6280    -4.0970 h1         1 SKO       0.030367
@<TRIPOS>BOND
     1     1     2 1
     2     2     3 ar
     3     2     7 ar
     4     3     4 ar
     5     4     5 1
     6     4     6 ar
     7     6     8 ar
     8     7     8 ar
     9     8     9 1
    10     9    10 1
    11    10    11 1
    12    11    12 ar
    13    11    15 ar
    14    12    13 ar
    15    13    14 ar
    16    14    16 ar
    17    15    16 ar
    18    16    17 1
    19    17    18 1
    20    17    19 1
    21    19    20 1
    22    20    21 1
    23    21    22 1
    24     1    23 1
    25     1    24 1
    26     3    25 1
    27     5    26 1
    28     5    27 1
    29     5    28 1
    30     6    29 1
    31     9    30 1
    32     9    31 1
    33    10    32 1
    34    10    33 1
    35    12    34 1
    36    13    35 1
    37    14    36 1
    38    18    37 1
    39    18    38 1
    40    18    39 1
    41    19    40 1
    42    19    41 1
    43    20    42 1
    44    20    43 1
    45    21    44 1
    46    22    45 1
    47    22    46 1
    48    22    47 1
@<TRIPOS>SUBSTRUCTURE
     1 SKO         1 TEMP              0 ****  ****    0 ROOT
