@<TRIPOS>MOLECULE
SKO
   47    48     1     0     0
SMALL
bcc


@<TRIPOS>ATOM
      1 N02          0.0000     0.0000     0.0000 nv         1 SKO      -0.536500
      2 C02          1.3900     0.0000     0.0000 ca         1 SKO       0.516200
      3 C03          2.0800     0.0000     1.2080 ca         1 SKO      -0.316300
      4 C04          3.4630     0.0000     1.1940 ca         1 SKO      -0.004300
      5 C07          4.2460    -0.0010     2.4810 c3         1 SKO       0.060200
      6 C05          4.1130     0.0000    -0.0330 ca         1 SKO      -0.293300
      7 N01          2.0460    -0.0050    -1.1500 nb         1 SKO      -0.653000
      8 C06          3.3660     0.0010    -1.1940 ca         1 SKO       0.433600
      9 C08          4.0650     0.0020    -2.5290 c3         1 SKO      -0.071700
     10 C09          3.5700    -1.1800    -3.3650 c3         1 SKO      -0.069700
     11 C12          4.2690    -1.1780    -4.7010 ca         1 SKO       0.423600
     12 C13          4.9490    -2.3070    -5.1140 ca         1 SKO      -0.286300
     13 C14          5.5910    -2.3000    -6.3440 ca         1 SKO      -0.018000
     14 C15          5.5260    -1.1550    -7.1180 ca         1 SKO      -0.315300
     15 N11          4.2190    -0.1020    -5.4610 nb         1 SKO      -0.637000
     16 C16          4.8230    -0.0550    -6.6380 ca         1 SKO       0.535200
     17 N17          4.7490     1.1030    -7.4050 nh         1 SKO      -0.484300
     18 C17          5.3160     1.1240    -8.7550 c3         1 SKO       0.210100
     19 C18          4.1050     2.3010    -6.8620 c3         1 SKO       0.170800
     20 C19          5.1460     3.1540    -6.1350 c3         1 SKO       0.117800
     21 N20          4.5000     4.3560    -5.5900 n7         1 SKO      -0.576200
     22 C21          5.4720     5.2020    -4.8840 c3         1 SKO       0.179100
     23 H021        -0.5000     0.0310    -0.8660 hn         1 SKO       0.269300
     24 H022        -0.5000    -0.0470     0.8650 hn         1 SKO       0.269300
     25 H03          1.5470     0.1720     2.1360 ha         1 SKO       0.118000
     26 H071         3.5650     0.0940     3.3180 hc         1 SKO       0.009033
     27 H072         4.9390     0.8310     2.4830 hc         1 SKO       0.009033
     28 H073         4.7970    -0.9300     2.5680 hc         1 SKO       0.009033
     29 H05          5.1950     0.0030    -0.0790 ha         1 SKO       0.119000
     30 H081         5.1340    -0.0860    -2.3770 hc         1 SKO       0.031700
     31 H082         3.8490     0.9280    -3.0490 hc         1 SKO       0.031700
     32 H091         3.7850    -2.1060    -2.8460 hc         1 SKO       0.030200
     33 H092         2.5010    -1.0920    -3.5170 hc         1 SKO       0.030200
     34 H13          4.9810    -3.1880    -4.4840 ha         1 SKO       0.117000
     35 H14          6.1310    -3.1730    -6.6920 ha         1 SKO       0.101000
     36 H15          6.0170    -1.1150    -8.0830 ha         1 SKO       0.122000
     37 H171         6.3790     0.9220    -8.7040 h1         1 SKO       0.005033
     38 H172         5.1550     2.0990    -9.1990 h1         1 SKO       0.005033
     39 H173         4.8330     0.3670    -9.3610 h1         1 SKO       0.005033
     40 H181         3.6690     2.8740    -7.6700 h1         1 SKO       0.035700
     41 H182         3.3280     2.0090    -6.1660 h1         1 SKO       0.035700
     42 H191         5.5830     2.5810    -5.3270 h1         1 SKO       0.011700
     43 H192         5.9230     3.4460    -6.8320 h1         1 SKO       0.011700
     44 H20          4.0830     4.8780    -6.3350 hn         1 SKO       0.245800
     45 H211         6.2240     5.5480    -5.5820 h1         1 SKO      -0.002300
     46 H212         4.9620     6.0540    -4.4510 h1         1 SKO      -0.002300
     47 H213         5.9460     4.6280    -4.0970 h1         1 SKO      -0.002300
@<TRIPOS>BOND
     1     1     2 1   
     2     1    23 1   
     3     1    24 1   
     4     2     3 ar  
     5     2     7 ar  
     6     3     4 ar  
     7     3    25 1   
     8     4     5 1   
     9     4     6 ar  
    10     5    26 1   
    11     5    27 1   
    12     5    28 1   
    13     6     8 ar  
    14     6    29 1   
    15     7     8 ar  
    16     8     9 1   
    17     9    10 1   
    18     9    30 1   
    19     9    31 1   
    20    10    11 1   
    21    10    32 1   
    22    10    33 1   
    23    11    12 ar  
    24    11    15 ar  
    25    12    13 ar  
    26    12    34 1   
    27    13    14 ar  
    28    13    35 1   
    29    14    16 ar  
    30    14    36 1   
    31    15    16 ar  
    32    16    17 1   
    33    17    18 1   
    34    17    19 1   
    35    18    37 1   
    36    18    38 1   
    37    18    39 1   
    38    19    20 1   
    39    19    40 1   
    40    19    41 1   
    41    20    21 1   
    42    20    42 1   
    43    20    43 1   
    44    21    22 1   
    45    21    44 1   
    46    22    45 1   
    47    22    46 1   
    48    22    47 1   
@<TRIPOS>SUBSTRUCTURE
     1 SKO         1 TEMP              0 ****  ****    0 ROOT
