@<TRIPOS>MOLECULE
molecule
   36    36     1     0     0
SMALL
bcc


@<TRIPOS>ATOM
      1 C1           0.0000     0.0000     0.0000 ce         1 SKP      -0.161400
      2 C2           1.3170     0.0000     0.0000 c2         1 SKP      -0.179200
      3 C3           2.1520     0.0000     1.2460 c3         1 SKP       0.206300
      4 C4           1.3070    -0.4230     2.4490 c3         1 SKP       0.140100
      5 C5           0.0140     0.4030     2.4520 c3         1 SKP       0.136100
      6 C6          -0.8340    -0.0110     1.2470 c3         1 SKP      -0.063200
      7 C7          -0.6920     0.0100    -1.2960 c          1 SKP       0.897800
      8 O1           2.6640     1.3130     1.4740 os         1 SKP      -0.487200
      9 O2           2.0380    -0.1900     3.6550 oh         1 SKP      -0.528800
     10 O3          -0.7110     0.1550     3.6580 os         1 SKP      -0.460600
     11 O4          -2.0400     0.0090    -1.3400 o          1 SKP      -0.913300
     12 O5          -0.0510     0.0180    -2.3280 o          1 SKP      -0.913300
     13 P1           4.2700     1.1950     1.4590 p5         1 SKP       1.229900
     14 O6           4.7140     0.6780     0.1460 o          1 SKP      -0.957500
     15 O7           4.9170     2.6470     1.7120 o          1 SKP      -0.957500
     16 O8           4.7450     0.1880     2.6210 o          1 SKP      -0.957500
     17 C8          -1.4430     1.3460     3.9500 c3         1 SKP       0.262600
     18 C9          -2.2460     1.1480     5.2370 c3         1 SKP      -0.097100
     19 C10         -2.3840     1.6510     2.8140 c          1 SKP       0.923600
     20 O9          -2.0630     2.4400     1.9580 o          1 SKP      -0.872800
     21 O10         -3.5790     1.0440     2.7510 o          1 SKP      -0.872800
     22 O11         -1.6980     3.4240     6.1280 o          1 SKP      -0.947167
     23 O12         -0.5340     5.0260     4.5650 o          1 SKP      -0.947167
     24 O13         -2.7600     3.8110     3.8720 o          1 SKP      -0.947167
     25 O14         -0.5340     2.4350     4.1190 os         1 SKP      -0.531200
     26 H2           1.8270     0.0000    -0.9560 ha         1 SKP       0.113000
     27 H3           2.9730    -0.6950     1.1250 h1         1 SKP       0.023700
     28 H4           1.0620    -1.4750     2.3650 h1         1 SKP      -0.046300
     29 H5           0.2570     1.4560     2.3780 h1         1 SKP       0.149700
     30 H61         -1.6570     0.6840     1.1340 hc         1 SKP       0.070700
     31 H62         -1.2210    -1.0100     1.4090 hc         1 SKP       0.070700
     32 HO2          2.2120    -1.0130     4.0800 ho         1 SKP       0.326000
     33 H91         -3.0440     1.8790     5.2820 hc         1 SKP       0.021367
     34 H92         -2.6700     0.1510     5.2480 hc         1 SKP       0.021367
     35 H93         -1.5940     1.2720     6.0930 hc         1 SKP       0.021367
     36 P2          -1.3880     3.6680     4.7030 p5         1 SKP       1.229900
@<TRIPOS>BOND
     1     1     2 2
     2     1     6 1
     3     1     7 1
     4     2     3 1
     5     2    26 1
     6     3     4 1
     7     3     8 1
     8     3    27 1
     9     4     5 1
    10     4     9 1
    11     4    28 1
    12     5     6 1
    13     5    10 1
    14     5    29 1
    15     6    30 1
    16     6    31 1
    17     7    11 1
    18     7    12 1
    19     8    13 1
    20     9    32 1
    21    10    17 1
    22    13    14 1
    23    13    15 1
    24    13    16 1
    25    17    18 1
    26    17    19 1
    27    17    25 1
    28    18    33 1
    29    18    34 1
    30    18    35 1
    31    19    20 1
    32    19    21 1
    33    36    22 1
    34    36    23 1
    35    36    24 1
    36    36    25 1
@<TRIPOS>SUBSTRUCTURE
     1 SKP         1 TEMP              0 ****  ****    0 ROOT
