@<TRIPOS>MOLECULE
SKP
   36    36     1     0     0
SMALL
bcc


@<TRIPOS>ATOM
      1 C1          0.1650   -0.9310    0.9040 ce        1 SKP     -0.177400
      2 C2          1.3020   -0.2790    0.1940 c3        1 SKP     -0.052200
      3 C3          2.3010    0.4110    1.1550 c3        1 SKP      0.241100
      4 C4          1.5380    1.3340    2.1690 c3        1 SKP      0.137100
      5 C5         -0.0020    1.0970    2.3210 c3        1 SKP      0.148300
      6 C6         -0.3910   -0.3030    1.9540 c2        1 SKP     -0.178200
      7 C7         -0.3600   -2.2350    0.3600 c         1 SKP      0.916800
      8 O1          3.2660    1.0910    0.4320 os        1 SKP     -0.578200
      9 O2          1.7410    2.6960    1.8230 oh        1 SKP     -0.622800
     10 O3         -0.3660    1.4410    3.6590 os        1 SKP     -0.458600
     11 O4         -0.3980   -3.2920    1.0730 o         1 SKP     -0.915300
     12 O5         -0.8020   -2.2950   -0.8390 o         1 SKP     -0.915300
     13 P1          4.8690    0.5060    0.2790 p5        1 SKP      1.340900
     14 O6          4.9000   -0.2110   -1.0570 o         1 SKP     -0.962500
     15 O7          5.7390    1.7480    0.2550 o         1 SKP     -0.962500
     16 O8          5.1420   -0.3970    1.4600 o         1 SKP     -0.962500
     17 C8         -1.6490    2.1420    3.8610 c3        1 SKP      0.402600
     18 C9         -2.7760    1.2360    3.3350 c3        1 SKP     -0.126100
     19 C10        -1.6790    3.4850    3.0530 c         1 SKP      0.887600
     20 O9         -0.6620    4.2410    2.9710 o         1 SKP     -0.904300
     21 O10        -2.7480    3.8100    2.4320 o         1 SKP     -0.904300
     22 O11        -4.0310    1.8230    6.1800 o         1 SKP     -0.960167
     23 O12        -2.0140    1.5840    7.6650 o         1 SKP     -0.960167
     24 O13        -2.7990    3.8640    7.0000 o         1 SKP     -0.960167
     25 O14        -1.6240    2.3180    5.2160 os        1 SKP     -0.613200
     26 H2          0.9010    0.4980   -0.5090 hc        1 SKP      0.030200
     27 H3          1.8540   -1.0330   -0.4230 hc        1 SKP      0.030200
     28 H4          2.8060   -0.3910    1.7730 h1        1 SKP      0.028700
     29 H5          2.0000    1.1610    3.1840 h1        1 SKP      0.012700
     30 H61        -0.5230    1.7920    1.5970 h1        1 SKP      0.045700
     31 H62        -1.1900   -0.7570    2.5550 ha        1 SKP      0.112000
     32 HO2         1.1070    3.2030    2.3610 ho        1 SKP      0.424000
     33 H91        -2.7500    0.2490    3.8520 hc        1 SKP      0.018033
     34 H92        -3.7580    1.7280    3.5230 hc        1 SKP      0.018033
     35 H93        -2.6500    1.0840    2.2380 hc        1 SKP      0.018033
     36 P2         -2.7050    2.4090    6.6050 p5        1 SKP      1.401900
@<TRIPOS>BOND
     1    1    2 1   
     2    1    6 2   
     3    1    7 1   
     4    2    3 1   
     5    2   26 1   
     6    2   27 1   
     7    3    4 1   
     8    3    8 1   
     9    3   28 1   
    10    4    5 1   
    11    4    9 1   
    12    4   29 1   
    13    5    6 1   
    14    5   10 1   
    15    5   30 1   
    16    6   31 1   
    17    7   11 1   
    18    7   12 1   
    19    8   13 1   
    20    9   32 1   
    21   10   17 1   
    22   13   14 1   
    23   13   15 1   
    24   13   16 1   
    25   17   18 1   
    26   17   19 1   
    27   17   25 1   
    28   18   33 1   
    29   18   34 1   
    30   18   35 1   
    31   19   20 1   
    32   19   21 1   
    33   22   36 1   
    34   23   36 1   
    35   24   36 1   
    36   25   36 1   
@<TRIPOS>SUBSTRUCTURE
     1 SKP         1 TEMP              0 ****  ****    0 ROOT
