@<TRIPOS>MOLECULE
molecule
   38    39     1     0     0
SMALL
bcc


@<TRIPOS>ATOM
      1 C01          0.0000     0.0000     0.0000 ce         1 SKT      -0.107400
      2 C02          1.3160     0.0000     0.0000 c2         1 SKT      -0.245200
      3 C03          2.1500     0.0000     1.2480 c3         1 SKT       0.174300
      4 C04          1.3020    -0.4240     2.4490 c3         1 SKT       0.150100
      5 C05          0.0120     0.4060     2.4510 c3         1 SKT       0.138100
      6 C06         -0.8350    -0.0100     1.2470 c3         1 SKT      -0.051200
      7 C07         -0.6910     0.0150    -1.2980 c          1 SKT       0.876800
      8 O08         -0.0480     0.0240    -2.3290 o          1 SKT      -0.837800
      9 O09         -2.0380     0.0210    -1.3420 o          1 SKT      -0.837800
     10 O10          2.6660     1.3130     1.4740 oh         1 SKT      -0.590800
     11 O11          2.0270    -0.1880     3.6570 oh         1 SKT      -0.595800
     12 O12         -0.7150     0.1600     3.6560 os         1 SKT      -0.419900
     13 C13         -1.4760     1.1700     4.1300 c          1 SKT       0.640300
     14 C14         -2.2230     0.9940     5.3220 ce         1 SKT      -0.204200
     15 C15         -2.9850     2.0050     5.7950 cf         1 SKT      -0.042200
     16 C16         -3.7600     1.8240     7.0300 ca         1 SKT      -0.073800
     17 O17         -1.5190     2.2290     3.5340 o          1 SKT      -0.548000
     18 C18         -4.5500     2.8700     7.5240 ca         1 SKT      -0.097500
     19 C19         -5.2740     2.6940     8.6810 ca         1 SKT      -0.157000
     20 C20         -5.2220     1.4830     9.3610 ca         1 SKT       0.104100
     21 C21         -4.4390     0.4420     8.8750 ca         1 SKT      -0.157000
     22 C22         -3.7160     0.6040     7.7160 ca         1 SKT      -0.097500
     23 O23         -5.9380     1.3160    10.5020 oh         1 SKT      -0.526100
     24 H6           1.8270     0.0010    -0.9550 ha         1 SKT       0.152000
     25 H5           2.9710    -0.6960     1.1280 h1         1 SKT       0.016700
     26 H4           1.0560    -1.4760     2.3650 h1         1 SKT       0.042700
     27 H3           0.2580     1.4580     2.3750 h1         1 SKT       0.099700
     28 H1          -1.2220    -1.0080     1.4100 hc         1 SKT       0.073700
     29 H2          -1.6570     0.6850     1.1310 hc         1 SKT       0.073700
     30 H8           3.5400     1.3730     1.1250 ho         1 SKT       0.388000
     31 H9           2.3670    -1.0050     3.9840 ho         1 SKT       0.384000
     32 H10         -2.1830     0.0510     5.8520 ha         1 SKT       0.137000
     33 H11         -3.0240     2.9480     5.2640 ha         1 SKT       0.162000
     34 H12         -4.5910     3.8150     6.9960 ha         1 SKT       0.142000
     35 H13         -5.8860     3.5030     9.0640 ha         1 SKT       0.137500
     36 H14         -4.4030    -0.5020     9.4070 ha         1 SKT       0.137500
     37 H15         -3.1060    -0.2080     7.3390 ha         1 SKT       0.142000
     38 H16         -6.8100     1.0290    10.2870 ho         1 SKT       0.417000
@<TRIPOS>BOND
     1     8     7 1
     2     2     3 1
     3     2     1 2
     4     7     1 1
     5     7     9 1
     6    10     3 1
     7     3     4 1
     8     1     6 1
     9     4    11 1
    10     4     5 1
    11     6     5 1
    12     5    12 1
    13    12    13 1
    14    17    13 2
    15    13    14 1
    16    14    15 2
    17    15    16 1
    18    16    18 ar
    19    16    22 ar
    20    18    19 ar
    21    22    21 ar
    22    19    20 ar
    23    21    20 ar
    24    20    23 1
    25     2    24 1
    26     3    25 1
    27     4    26 1
    28     5    27 1
    29     6    28 1
    30     6    29 1
    31    10    30 1
    32    11    31 1
    33    14    32 1
    34    15    33 1
    35    18    34 1
    36    19    35 1
    37    21    36 1
    38    22    37 1
    39    23    38 1
@<TRIPOS>SUBSTRUCTURE
     1 SKT         1 TEMP              0 ****  ****    0 ROOT
