@<TRIPOS>MOLECULE
SKY
   45    48     1     0     0
SMALL
bcc


@<TRIPOS>ATOM
      1 C10        -0.0780   -0.2540   -0.0800 ca        1 SKY     -0.083000
      2 C11         1.3190    0.0040   -0.0600 ca        1 SKY     -0.041000
      3 C12         2.0770   -0.1130    1.1380 ca        1 SKY     -0.112000
      4 C13         3.4260    0.1420    1.1360 ca        1 SKY     -0.129000
      5 C14         4.0810    0.5240   -0.0590 ca        1 SKY     -0.123000
      6 C15         3.3740    0.6440   -1.2300 ca        1 SKY     -0.120000
      7 C16         1.9760    0.3870   -1.2570 ca        1 SKY     -0.033000
      8 C17         1.2140    0.5030   -2.4520 ca        1 SKY     -0.117000
      9 C18        -0.1320    0.2490   -2.4510 ca        1 SKY     -0.120000
     10 C9         -0.7990   -0.1360   -1.2520 ca        1 SKY     -0.111500
     11 C8         -2.2210   -0.3910   -1.2960 cc        1 SKY      0.323800
     12 C7         -3.1080   -0.2870   -2.3850 cd        1 SKY     -0.191600
     13 N3         -3.0070   -0.8280   -0.1870 nc        1 SKY     -0.337000
     14 N2         -4.2140   -0.9650   -0.5370 nd        1 SKY     -0.170800
     15 N1         -4.3490   -0.6900   -1.8620 na        1 SKY      0.034400
     16 C1         -5.6110   -0.5820   -2.5740 c3        1 SKY      0.240800
     17 O5         -5.9790    0.8090   -2.5720 os        1 SKY     -0.435600
     18 C5         -7.1150    1.0740   -3.4000 c3        1 SKY      0.105100
     19 C6         -7.3360    2.5890   -3.3200 c3        1 SKY      0.141400
     20 O6         -6.2600    3.2880   -3.9020 oh        1 SKY     -0.592800
     21 C4         -8.3450    0.3140   -2.8810 c3        1 SKY      0.121100
     22 O4         -9.3940    0.5460   -3.8030 oh        1 SKY     -0.592800
     23 C3         -8.0270   -1.1890   -2.7990 c3        1 SKY      0.105100
     24 O3         -9.1500   -1.8060   -2.1970 oh        1 SKY     -0.601800
     25 C2         -6.7660   -1.4070   -1.9440 c3        1 SKY      0.091100
     26 O2         -6.4870   -2.7920   -2.0080 oh        1 SKY     -0.600800
     27 H10        -0.5670   -0.5500    0.8620 ha        1 SKY      0.154000
     28 H12         1.5580   -0.4100    2.0620 ha        1 SKY      0.136000
     29 H13         4.0140    0.0520    2.0620 ha        1 SKY      0.134000
     30 H14         5.1630    0.7220   -0.0350 ha        1 SKY      0.133000
     31 H15         3.8730    0.9410   -2.1640 ha        1 SKY      0.133000
     32 H17         1.7290    0.8010   -3.3780 ha        1 SKY      0.134000
     33 H18        -0.7150    0.3410   -3.3800 ha        1 SKY      0.127000
     34 H7         -2.9730    0.0090   -3.4230 h4        1 SKY      0.196000
     35 H1         -5.4260   -0.9230   -3.6380 h2        1 SKY      0.076700
     36 H5         -6.8910    0.7700   -4.4600 h1        1 SKY      0.070700
     37 H6         -8.2390    2.8540   -3.9340 h1        1 SKY      0.068200
     38 H6A        -7.4810    2.8990   -2.2520 h1        1 SKY      0.068200
     39 HO6        -5.4770    3.0980   -3.3690 ho        1 SKY      0.410000
     40 H4         -8.6380    0.6900   -1.8610 h1        1 SKY      0.067700
     41 HO4       -10.1390    0.0010   -3.5100 ho        1 SKY      0.428000
     42 H3         -7.8700   -1.6140   -3.8290 h1        1 SKY      0.064700
     43 HO3        -8.9280   -2.7410   -2.0890 ho        1 SKY      0.429000
     44 H2         -6.9580   -1.0770   -0.8870 h1        1 SKY      0.088700
     45 HO2        -5.8890   -3.0020   -1.2790 ho        1 SKY      0.431000
@<TRIPOS>BOND
     1    1    2 ar  
     2    1   10 ar  
     3    1   27 1   
     4    2    3 ar  
     5    2    7 ar  
     6    3    4 ar  
     7    3   28 1   
     8    4    5 ar  
     9    4   29 1   
    10    5    6 ar  
    11    5   30 1   
    12    6    7 ar  
    13    6   31 1   
    14    7    8 ar  
    15    8    9 ar  
    16    8   32 1   
    17    9   10 ar  
    18    9   33 1   
    19   10   11 1   
    20   11   12 2   
    21   11   13 1   
    22   12   15 1   
    23   12   34 1   
    24   13   14 2   
    25   14   15 1   
    26   15   16 1   
    27   16   17 1   
    28   16   25 1   
    29   16   35 1   
    30   17   18 1   
    31   18   19 1   
    32   18   21 1   
    33   18   36 1   
    34   19   20 1   
    35   19   37 1   
    36   19   38 1   
    37   20   39 1   
    38   21   22 1   
    39   21   23 1   
    40   21   40 1   
    41   22   41 1   
    42   23   24 1   
    43   23   25 1   
    44   23   42 1   
    45   24   43 1   
    46   25   26 1   
    47   25   44 1   
    48   26   45 1   
@<TRIPOS>SUBSTRUCTURE
     1 SKY         1 TEMP              0 ****  ****    0 ROOT
