@<TRIPOS>MOLECULE
molecule
   45    48     1     0     0
SMALL
bcc


@<TRIPOS>ATOM
      1 C10          0.0000     0.0000     0.0000 ca         1 SKY      -0.083000
      2 C11          1.4030     0.0000     0.0000 ca         1 SKY      -0.038000
      3 C12          2.1310     0.0000     1.2030 ca         1 SKY      -0.110000
      4 C13          3.4910     0.0000     1.1680 ca         1 SKY      -0.129000
      5 C14          4.1770    -0.0000    -0.0460 ca         1 SKY      -0.124000
      6 C15          3.5050    -0.0000    -1.2310 ca         1 SKY      -0.119000
      7 C16          2.1000    -0.0000    -1.2340 ca         1 SKY      -0.033000
      8 C17          1.3790    -0.0010    -2.4410 ca         1 SKY      -0.118000
      9 C18          0.0200    -0.0020    -2.4190 ca         1 SKY      -0.117000
     10 C9          -0.6800    -0.0060    -1.2020 ca         1 SKY      -0.108500
     11 C8          -2.1650    -0.0070    -1.2080 cc         1 SKY       0.332800
     12 C7          -2.9800    -0.1030    -2.2990 cd         1 SKY      -0.258600
     13 N3          -2.9770     0.0820    -0.1390 nc         1 SKY      -0.356000
     14 N2          -4.1980     0.0490    -0.5430 nd         1 SKY      -0.194800
     15 N1          -4.2450    -0.0610    -1.8240 na         1 SKY       0.137400
     16 C1          -5.4660    -0.1320    -2.6320 c3         1 SKY       0.281800
     17 O5          -6.1770     1.1020    -2.5290 os         1 SKY      -0.397600
     18 C5          -7.3780     1.1510    -3.3040 c3         1 SKY       0.149100
     19 C6          -8.0370     2.5210    -3.1400 c3         1 SKY       0.152400
     20 O6          -7.1880     3.5270    -3.6950 oh         1 SKY      -0.598800
     21 C4          -8.3380     0.0600    -2.8210 c3         1 SKY       0.099100
     22 O4          -9.5160     0.0690    -3.6310 oh         1 SKY      -0.599800
     23 C3          -7.6500    -1.3030    -2.9320 c3         1 SKY       0.111100
     24 O3          -8.5120    -2.3180    -2.4150 oh         1 SKY      -0.599800
     25 C2          -6.3500    -1.2740    -2.1220 c3         1 SKY       0.096100
     26 O2          -5.6620    -2.5160    -2.2780 oh         1 SKY      -0.598800
     27 H10         -0.5460    -0.0040     0.9360 ha         1 SKY       0.156000
     28 H12          1.6110     0.0000     2.1540 ha         1 SKY       0.136000
     29 H13          4.0500     0.0000     2.0960 ha         1 SKY       0.128000
     30 H14          5.2600    -0.0000    -0.0470 ha         1 SKY       0.127000
     31 H15          4.0520    -0.0010    -2.1660 ha         1 SKY       0.131000
     32 H17          1.9050     0.0030    -3.3880 ha         1 SKY       0.133000
     33 H18         -0.5300    -0.0060    -3.3520 ha         1 SKY       0.125000
     34 H7          -2.6750    -0.1920    -3.3350 h4         1 SKY       0.185000
     35 H1          -5.2080    -0.3130    -3.6690 h2         1 SKY       0.076700
     36 H5          -7.1390     0.9830    -4.3470 h1         1 SKY       0.064700
     37 H6          -8.9900     2.5280    -3.6550 h1         1 SKY       0.041200
     38 H6A         -8.1940     2.7220    -2.0870 h1         1 SKY       0.041200
     39 HO6         -7.6690     4.3340    -3.7760 ho         1 SKY       0.407000
     40 H4          -8.6030     0.2460    -1.7870 h1         1 SKY       0.064700
     41 HO4        -10.2790     0.0570    -3.0760 ho         1 SKY       0.416000
     42 H3          -7.4220    -1.5090    -3.9710 h1         1 SKY       0.059700
     43 HO3         -8.7210    -2.9320    -3.1000 ho         1 SKY       0.418000
     44 H2          -6.5810    -1.1110    -1.0760 h1         1 SKY       0.084700
     45 HO2         -5.8420    -3.0710    -1.5370 ho         1 SKY       0.426000
@<TRIPOS>BOND
     1    10     1 ar
     2     1     2 ar
     3     1    27 1
     4     7     2 ar
     5     2     3 ar
     6     3     4 ar
     7     3    28 1
     8     5     4 ar
     9     4    29 1
    10     6     5 ar
    11     5    30 1
    12     7     6 ar
    13     6    31 1
    14     8     7 ar
    15     9     8 ar
    16     8    32 1
    17     9    10 ar
    18     9    33 1
    19    11    10 1
    20    12    11 2
    21    11    13 1
    22    15    12 1
    23    12    34 1
    24    14    13 2
    25    15    14 1
    26    16    15 1
    27    25    16 1
    28    16    17 1
    29    16    35 1
    30    18    17 1
    31    21    18 1
    32    18    19 1
    33    18    36 1
    34    20    19 1
    35    19    37 1
    36    19    38 1
    37    20    39 1
    38    22    21 1
    39    23    21 1
    40    21    40 1
    41    22    41 1
    42    24    23 1
    43    23    25 1
    44    23    42 1
    45    24    43 1
    46    26    25 1
    47    25    44 1
    48    26    45 1
@<TRIPOS>SUBSTRUCTURE
     1 SKY         1 TEMP              0 ****  ****    0 ROOT
