@<TRIPOS>MOLECULE
molecule
   61    64     1     0     0
SMALL
bcc


@<TRIPOS>ATOM
      1 C1           0.0000     0.0000     0.0000 c3         1 SL0      -0.138100
      2 C2           1.5080     0.0000     0.0000 c          1 SL0       0.629100
      3 O1           2.1110     0.0000     1.0470 o          1 SL0      -0.556000
      4 O2           2.1780    -0.0010    -1.1620 os         1 SL0      -0.406900
      5 C3           3.6280    -0.0010    -1.0870 c3         1 SL0       0.158100
      6 C4           4.1400    -1.4450    -1.0700 c3         1 SL0       0.118100
      7 O3           3.6680    -2.1320    -2.2310 oh         1 SL0      -0.576800
      8 C5           4.2060     0.7200    -2.3090 c3         1 SL0       0.123100
      9 O4           3.7860     2.1100    -2.2950 os         1 SL0      -0.419900
     10 C6           3.6430     2.7160    -3.4840 c          1 SL0       0.633100
     11 O5           3.8610     2.1050    -4.5030 o          1 SL0      -0.550000
     12 C7           3.2100     4.1580    -3.5480 c3         1 SL0      -0.138100
     13 C8           5.7340     0.6460    -2.2600 c3         1 SL0       0.121100
     14 C9           6.3170     1.3120    -3.5080 c3         1 SL0      -0.085100
     15 O6           6.1420    -0.7220    -2.2160 os         1 SL0      -0.408600
     16 C10          5.6710    -1.4350    -1.0710 c3         1 SL0       0.306900
     17 O7           6.1430    -0.7950     0.1170 os         1 SL0      -0.335900
     18 C11          7.4590    -0.9560     0.4240 cc         1 SL0      -0.080100
     19 C12          7.9780    -2.2500     0.6900 c          1 SL0       0.574900
     20 O8           7.2650    -3.2390     0.6520 o          1 SL0      -0.527100
     21 C13          8.2900     0.1240     0.4730 cd         1 SL0       0.181900
     22 C14          7.7360     1.4590     0.1890 ca         1 SL0      -0.078800
     23 C15          6.5550     1.8760     0.8100 ca         1 SL0      -0.073000
     24 C16          6.0420     3.1260     0.5420 ca         1 SL0      -0.161500
     25 C17          6.6950     3.9720    -0.3460 ca         1 SL0       0.125100
     26 O9           6.1850     5.2030    -0.6080 oh         1 SL0      -0.523100
     27 C18          7.8680     3.5620    -0.9670 ca         1 SL0      -0.161500
     28 C19          8.3930     2.3160    -0.7000 ca         1 SL0      -0.073000
     29 O10          9.5960     0.0140     0.7710 os         1 SL0      -0.197200
     30 C20         10.1770    -1.1730     1.0440 ca         1 SL0       0.201100
     31 C21         11.5280    -1.2480     1.3470 ca         1 SL0      -0.221000
     32 C22         12.1110    -2.4740     1.6250 ca         1 SL0       0.198100
     33 O11         13.4340    -2.5380     1.9210 oh         1 SL0      -0.517100
     34 C23         11.3520    -3.6400     1.6020 ca         1 SL0      -0.276000
     35 C24         10.0040    -3.5860     1.3020 ca         1 SL0       0.231100
     36 C25          9.4100    -2.3500     1.0160 ca         1 SL0      -0.266600
     37 O12          9.2630    -4.7230     1.2800 oh         1 SL0      -0.463100
     38 H733        -0.3610    -1.0120    -0.1390 hc         1 SL0       0.069700
     39 H731        -0.3610     0.6260    -0.8070 hc         1 SL0       0.069700
     40 H732        -0.3610     0.3860     0.9460 hc         1 SL0       0.069700
     41 H23          3.9490     0.5050    -0.1850 h1         1 SL0       0.096700
     42 H22          3.7830    -1.9440    -0.1780 h1         1 SL0       0.070700
     43 H1           3.5580    -3.0470    -2.0330 ho         1 SL0       0.409000
     44 H24          3.8510     0.2390    -3.2120 h1         1 SL0       0.108700
     45 H643         2.2300     4.2210    -4.0040 hc         1 SL0       0.070033
     46 H642         3.9210     4.7220    -4.1400 hc         1 SL0       0.070033
     47 H641         3.1700     4.5670    -2.5460 hc         1 SL0       0.070033
     48 H25          6.0900     1.1560    -1.3730 h1         1 SL0       0.060700
     49 H512         6.1120     2.3760    -3.4780 hc         1 SL0       0.052033
     50 H513         7.3880     1.1520    -3.5360 hc         1 SL0       0.052033
     51 H511         5.8640     0.8810    -4.3920 hc         1 SL0       0.052033
     52 H21          6.0370    -2.4540    -1.1070 h2         1 SL0       0.109700
     53 H12          6.0450     1.2180     1.5030 ha         1 SL0       0.152500
     54 H13          5.1270     3.4500     1.0240 ha         1 SL0       0.149000
     55 H15          8.3750     4.2250    -1.6570 ha         1 SL0       0.149000
     56 H16          9.3080     1.9980    -1.1850 ha         1 SL0       0.152500
     57 H8          12.1250    -0.3440     1.3840 ha         1 SL0       0.161000
     58 H6          11.8190    -4.5930     1.8210 ha         1 SL0       0.152000
     59 H221         6.5350     5.8260     0.0080 ho         1 SL0       0.424000
     60 H231        13.9330    -2.5970     1.1230 ho         1 SL0       0.432000
     61 H241         9.5760    -5.3160     1.9430 ho         1 SL0       0.427000
@<TRIPOS>BOND
     1     1     2 1
     2     1    38 1
     3     1    39 1
     4     1    40 1
     5     2     4 1
     6     2     3 2
     7     4     5 1
     8     5     8 1
     9     5    41 1
    10     6     5 1
    11     6    16 1
    12     6    42 1
    13     7     6 1
    14     7    43 1
    15     8     9 1
    16     8    13 1
    17     8    44 1
    18    10    12 1
    19    10     9 1
    20    11    10 2
    21    12    45 1
    22    12    46 1
    23    12    47 1
    24    13    14 1
    25    13    48 1
    26    14    49 1
    27    14    50 1
    28    14    51 1
    29    15    13 1
    30    16    15 1
    31    16    17 1
    32    16    52 1
    33    17    18 1
    34    18    19 1
    35    18    21 2
    36    19    36 1
    37    20    19 2
    38    21    22 1
    39    21    29 1
    40    22    28 ar
    41    23    24 ar
    42    23    22 ar
    43    23    53 1
    44    24    25 ar
    45    24    54 1
    46    25    26 1
    47    25    27 ar
    48    27    55 1
    49    28    27 ar
    50    28    56 1
    51    29    30 1
    52    30    31 ar
    53    31    32 ar
    54    31    57 1
    55    32    33 1
    56    34    32 ar
    57    34    58 1
    58    35    34 ar
    59    36    35 ar
    60    36    30 ar
    61    37    35 1
    62    26    59 1
    63    33    60 1
    64    37    61 1
@<TRIPOS>SUBSTRUCTURE
     1 SL0         1 TEMP              0 ****  ****    0 ROOT
