@<TRIPOS>MOLECULE
SL0
   61    64     1     0     0
SMALL
bcc


@<TRIPOS>ATOM
      1 C1         -0.0610   -0.6640   -0.4210 c3        1 SL0     -0.149100
      2 C2          1.3880   -0.4470   -0.1530 c         1 SL0      0.637100
      3 O1          1.9800   -0.4520    0.9280 o         1 SL0     -0.548000
      4 O2          2.1050   -0.2170   -1.2960 os        1 SL0     -0.416900
      5 C3          3.5150    0.0030   -1.1700 c3        1 SL0      0.153100
      6 C4          4.2570   -1.3280   -1.0020 c3        1 SL0      0.102100
      7 O3          3.7490   -2.2400   -1.9580 oh        1 SL0     -0.577800
      8 C5          3.9460    0.7170   -2.4600 c3        1 SL0      0.118100
      9 O4          3.3580    2.0260   -2.4020 os        1 SL0     -0.439900
     10 C6          2.7070    2.5060   -3.5070 c         1 SL0      0.639100
     11 O5          2.7120    1.8470   -4.5470 o         1 SL0     -0.535000
     12 C7          2.0730    3.8310   -3.2550 c3        1 SL0     -0.150100
     13 C8          5.4760    0.8910   -2.4650 c3        1 SL0      0.132100
     14 C9          5.9600    1.4680   -3.7810 c3        1 SL0     -0.089100
     15 O6          6.1330   -0.3730   -2.3340 os        1 SL0     -0.413600
     16 C10         5.7740   -1.1470   -1.2200 c3        1 SL0      0.298900
     17 O7          6.2680   -0.4480   -0.0720 os        1 SL0     -0.347900
     18 C11         7.5670   -0.7450    0.3040 cc        1 SL0     -0.071100
     19 C12         7.9020   -2.1470    0.6210 c         1 SL0      0.596900
     20 O8          7.0870   -3.0700    0.4810 o         1 SL0     -0.538100
     21 C13         8.4510    0.2790    0.4780 cd        1 SL0      0.176900
     22 C14         8.2240    1.7040    0.2510 ca        1 SL0     -0.103800
     23 C15         6.9630    2.2690    0.4970 ca        1 SL0     -0.051500
     24 C16         6.7440    3.6250    0.2840 ca        1 SL0     -0.197000
     25 C17         7.8010    4.4260   -0.1770 ca        1 SL0      0.145100
     26 O9          7.5230    5.7580   -0.3710 oh        1 SL0     -0.493100
     27 C18         9.0690    3.8750   -0.4210 ca        1 SL0     -0.197000
     28 C19         9.2730    2.5170   -0.2030 ca        1 SL0     -0.051500
     29 O10         9.7400    0.0670    0.9550 os        1 SL0     -0.215200
     30 C20        10.1260   -1.2250    1.2490 ca        1 SL0      0.214100
     31 C21        11.4460   -1.3410    1.7090 ca        1 SL0     -0.233000
     32 C22        11.9140   -2.6190    2.0370 ca        1 SL0      0.221100
     33 O11        13.2080   -2.6950    2.4830 oh        1 SL0     -0.484100
     34 C23        11.0990   -3.7560    1.9120 ca        1 SL0     -0.350000
     35 C24         9.7870   -3.6040    1.4490 ca        1 SL0      0.251100
     36 C25         9.2690   -2.3310    1.1050 ca        1 SL0     -0.280600
     37 O12         8.9480   -4.6720    1.3040 oh        1 SL0     -0.449100
     38 H733       -0.2890   -0.5430   -1.5070 hc        1 SL0      0.077033
     39 H731       -0.3330   -1.6990   -0.0980 hc        1 SL0      0.077033
     40 H732       -0.6530    0.0730    0.1730 hc        1 SL0      0.077033
     41 H23         3.7250    0.6470   -0.2700 h1        1 SL0      0.092700
     42 H22         4.0810   -1.7140    0.0420 h1        1 SL0      0.087700
     43 H1          4.1470   -3.0980   -1.7610 ho        1 SL0      0.411000
     44 H24         3.5960    0.1450   -3.3620 h1        1 SL0      0.119700
     45 H643        0.9620    3.7000   -3.2570 hc        1 SL0      0.076033
     46 H642        2.3610    4.5340   -4.0740 hc        1 SL0      0.076033
     47 H641        2.3930    4.2490   -2.2700 hc        1 SL0      0.076033
     48 H25         5.7770    1.5480   -1.5990 h1        1 SL0      0.062700
     49 H512        7.0440    1.7200   -3.7130 hc        1 SL0      0.050700
     50 H513        5.3730    2.3890   -4.0120 hc        1 SL0      0.050700
     51 H511        5.8150    0.7280   -4.6060 hc        1 SL0      0.050700
     52 H21         6.2820   -2.1390   -1.3850 h2        1 SL0      0.112700
     53 H12         6.1390    1.6310    0.8610 ha        1 SL0      0.156000
     54 H13         5.7600    4.0770    0.4720 ha        1 SL0      0.148000
     55 H15         9.8910    4.5100   -0.7800 ha        1 SL0      0.148000
     56 H16        10.2650    2.0740   -0.3860 ha        1 SL0      0.156000
     57 H8         12.0890   -0.4580    1.8120 ha        1 SL0      0.175000
     58 H6         11.4860   -4.7500    2.1750 ha        1 SL0      0.144000
     59 H221        8.3330    6.1930   -0.6750 ho        1 SL0      0.422000
     60 H231       13.4090   -3.6230    2.6780 ho        1 SL0      0.428000
     61 H241        9.4220   -5.4720    1.5810 ho        1 SL0      0.423000
@<TRIPOS>BOND
     1    1    2 1   
     2    1   38 1   
     3    1   39 1   
     4    1   40 1   
     5    2    3 2   
     6    2    4 1   
     7    4    5 1   
     8    5    6 1   
     9    5    8 1   
    10    5   41 1   
    11    6    7 1   
    12    6   16 1   
    13    6   42 1   
    14    7   43 1   
    15    8    9 1   
    16    8   13 1   
    17    8   44 1   
    18    9   10 1   
    19   10   11 2   
    20   10   12 1   
    21   12   45 1   
    22   12   46 1   
    23   12   47 1   
    24   13   14 1   
    25   13   15 1   
    26   13   48 1   
    27   14   49 1   
    28   14   50 1   
    29   14   51 1   
    30   15   16 1   
    31   16   17 1   
    32   16   52 1   
    33   17   18 1   
    34   18   19 1   
    35   18   21 2   
    36   19   20 2   
    37   19   36 1   
    38   21   22 1   
    39   21   29 1   
    40   22   23 ar  
    41   22   28 ar  
    42   23   24 ar  
    43   23   53 1   
    44   24   25 ar  
    45   24   54 1   
    46   25   26 1   
    47   25   27 ar  
    48   26   59 1   
    49   27   28 ar  
    50   27   55 1   
    51   28   56 1   
    52   29   30 1   
    53   30   31 ar  
    54   30   36 ar  
    55   31   32 ar  
    56   31   57 1   
    57   32   33 1   
    58   32   34 ar  
    59   33   60 1   
    60   34   35 ar  
    61   34   58 1   
    62   35   36 ar  
    63   35   37 1   
    64   37   61 1   
@<TRIPOS>SUBSTRUCTURE
     1 SL0         1 TEMP              0 ****  ****    0 ROOT
