@<TRIPOS>MOLECULE
molecule
   77    80     1     0     0
SMALL
bcc


@<TRIPOS>ATOM
      1 N1           0.0000     0.0000     0.0000 n7         1 SL1      -0.864100
      2 C1           1.4780     0.0000     0.0000 c3         1 SL1       0.364700
      3 C2           1.9450     0.0000     1.4460 c          1 SL1       0.716500
      4 O1           1.1600     0.2510     2.3650 o          1 SL1      -0.568500
      5 N2           3.2890    -0.3500     1.6480 n          1 SL1      -0.390000
      6 C3           3.7310    -0.6090     3.0190 c3         1 SL1       0.024000
      7 C4           3.4900    -2.0560     3.3640 c          1 SL1       0.653100
      8 O3           2.5780    -2.7230     2.8810 o          1 SL1      -0.540100
      9 N3           4.4180    -2.5190     4.2860 ns         1 SL1      -0.611900
     10 C5           4.4230    -3.8700     4.7970 c3         1 SL1       0.007700
     11 C6           4.8430    -3.8140     6.2490 c          1 SL1       0.548900
     12 O2           4.8280    -4.7900     6.9950 o          1 SL1      -0.496100
     13 C7           4.2440    -0.5300     0.5890 ca         1 SL1       0.114600
     14 C9           4.1990     0.1950    -0.6200 ca         1 SL1      -0.222900
     15 C8           3.2290     1.3050    -0.8550 ce         1 SL1       0.533500
     16 N4           1.9690     1.2300    -0.5870 n2         1 SL1      -0.595900
     17 C10          3.7300     2.5510    -1.4390 ca         1 SL1      -0.154900
     18 C11          5.0410     2.9440    -1.1950 ca         1 SL1      -0.092500
     19 C12          5.5200     4.1300    -1.7510 ca         1 SL1      -0.134000
     20 C13          4.6850     4.9150    -2.5460 ca         1 SL1      -0.103000
     21 C14          3.3700     4.5130    -2.7860 ca         1 SL1      -0.134000
     22 C15          2.8920     3.3260    -2.2300 ca         1 SL1      -0.092500
     23 C16          5.1260    -0.0680    -1.6450 ca         1 SL1      -0.052000
     24 C17          6.1310    -1.0130    -1.4650 ca         1 SL1      -0.160000
     25 C18          6.2210    -1.7000    -0.2630 ca         1 SL1      -0.103000
     26 C19          5.2910    -1.4590     0.7520 ca         1 SL1      -0.188000
     27 C20          5.2760    -4.8170     3.9510 c3         1 SL1      -0.079400
     28 C21          6.7610    -4.4250     3.8790 c3         1 SL1      -0.093400
     29 C22          7.5720    -5.3720     2.9970 c3         1 SL1       0.218800
     30 N5           8.9490    -4.9440     2.9170 nu         1 SL1      -0.870200
     31 C23          9.9560    -5.5230     2.1740 c2         1 SL1       0.706100
     32 N6           9.6250    -6.6240     1.4260 nz         1 SL1      -0.806600
     33 N7          11.1710    -5.0400     2.1870 n2         1 SL1      -0.775100
     34 S           -0.8290    -0.7320    -1.2980 s6         1 SL1       1.255900
     35 O4          -2.2290    -0.3600    -1.2630 o          1 SL1      -0.594800
     36 O5          -0.4320    -2.1260    -1.3650 o          1 SL1      -0.594800
     37 C24         -0.0770     0.1000    -2.6780 c3         1 SL1      -0.162300
     38 C25         -0.7030    -0.4350    -3.9290 ca         1 SL1      -0.103300
     39 C26         -1.8380     0.1780    -4.4500 ca         1 SL1      -0.102000
     40 C27         -2.4200    -0.3210    -5.6150 ca         1 SL1      -0.126500
     41 C28         -1.8640    -1.4280    -6.2550 ca         1 SL1      -0.113000
     42 C29         -0.7260    -2.0380    -5.7290 ca         1 SL1      -0.126500
     43 C30         -0.1430    -1.5400    -4.5630 ca         1 SL1      -0.102000
     44 H1          -0.5000     0.2730     0.8230 hn         1 SL1       0.477800
     45 HA           1.8700    -0.8610    -0.5290 h2         1 SL1       0.088700
     46 H3C1         4.7890    -0.3900     3.1050 h1         1 SL1       0.085700
     47 H3C2         3.1760     0.0220     3.7020 h1         1 SL1       0.085700
     48 H3           5.1200    -1.8850     4.6130 hn         1 SL1       0.310500
     49 H5           3.4030    -4.2360     4.7660 h1         1 SL1       0.119700
     50 H6           5.1740    -2.8620     6.6460 h4         1 SL1       0.005200
     51 H11          5.6870     2.3330    -0.5770 ha         1 SL1       0.142000
     52 H12          6.5400     4.4430    -1.5640 ha         1 SL1       0.140000
     53 H13          5.0560     5.8370    -2.9780 ha         1 SL1       0.140000
     54 H14          2.7210     5.1220    -3.4040 ha         1 SL1       0.140000
     55 H15          1.8720     3.0110    -2.4140 ha         1 SL1       0.142000
     56 H16          5.0510     0.4640    -2.5860 ha         1 SL1       0.160000
     57 H17          6.7730    -1.2850    -2.2940 ha         1 SL1       0.141000
     58 H18          7.0020    -2.4350    -0.1170 ha         1 SL1       0.117000
     59 H19          5.8310    -1.4270     1.6900 ha         1 SL1       0.125000
     60 H201         5.2040    -5.8130     4.3710 hc         1 SL1       0.068700
     61 H202         4.8760    -4.8360     2.9450 hc         1 SL1       0.068700
     62 H211         6.8390    -3.4220     3.4790 hc         1 SL1       0.060200
     63 H212         7.1750    -4.4370     4.8790 hc         1 SL1       0.060200
     64 H221         7.1450    -5.3860     2.0010 h1         1 SL1       0.043200
     65 H222         7.5330    -6.3700     3.4150 h1         1 SL1       0.043200
     66 HB           9.2000    -4.1420     3.4610 hn         1 SL1       0.494800
     67 H6N1         8.9300    -6.3720     0.7520 hn         1 SL1       0.469133
     68 H6N2         9.2650    -7.3400     2.0250 hn         1 SL1       0.469133
     69 H7          11.8900    -5.4740     1.6420 hn         1 SL1       0.446400
     70 H241         0.9890    -0.0950    -2.6880 h1         1 SL1       0.106200
     71 H242        -0.2540     1.1660    -2.6050 h1         1 SL1       0.106200
     72 H26         -2.2690     1.0380    -3.9530 ha         1 SL1       0.138500
     73 H27         -3.3040     0.1530    -6.0240 ha         1 SL1       0.136000
     74 H28         -2.3160    -1.8150    -7.1600 ha         1 SL1       0.135000
     75 H29         -0.2930    -2.8980    -6.2250 ha         1 SL1       0.136000
     76 H30          0.7410    -2.0120    -4.1530 ha         1 SL1       0.138500
     77 H63         10.4400    -6.9650     0.9540 hn         1 SL1       0.469133
@<TRIPOS>BOND
     1     1     2 1
     2     1    34 1
     3     1    44 1
     4     2     3 1
     5     2    16 1
     6     2    45 1
     7     3     4 2
     8     3     5 1
     9     5     6 1
    10     5    13 1
    11     6     7 1
    12     6    46 1
    13     6    47 1
    14     7     8 2
    15     7     9 1
    16     9    10 1
    17     9    48 1
    18    10    11 1
    19    10    27 1
    20    10    49 1
    21    11    12 2
    22    11    50 1
    23    13    14 ar
    24    13    26 ar
    25    14    15 1
    26    14    23 ar
    27    15    16 2
    28    15    17 1
    29    17    18 ar
    30    17    22 ar
    31    18    19 ar
    32    18    51 1
    33    19    20 ar
    34    19    52 1
    35    20    21 ar
    36    20    53 1
    37    21    22 ar
    38    21    54 1
    39    22    55 1
    40    23    24 ar
    41    23    56 1
    42    24    25 ar
    43    24    57 1
    44    25    26 ar
    45    25    58 1
    46    26    59 1
    47    27    28 1
    48    27    60 1
    49    27    61 1
    50    28    29 1
    51    28    62 1
    52    28    63 1
    53    29    30 1
    54    29    64 1
    55    29    65 1
    56    30    31 1
    57    30    66 1
    58    31    32 1
    59    31    33 2
    60    32    67 1
    61    32    68 1
    62    33    69 1
    63    34    35 2
    64    34    36 2
    65    34    37 1
    66    37    38 1
    67    37    70 1
    68    37    71 1
    69    38    39 ar
    70    38    43 ar
    71    39    40 ar
    72    39    72 1
    73    40    41 ar
    74    40    73 1
    75    41    42 ar
    76    41    74 1
    77    42    43 ar
    78    42    75 1
    79    43    76 1
    80    77    32 1
@<TRIPOS>SUBSTRUCTURE
     1 SL1         1 TEMP              0 ****  ****    0 ROOT
