@<TRIPOS>MOLECULE
SL1
   77    80     1     0     0
SMALL
bcc


@<TRIPOS>ATOM
      1 N1           0.0000     0.0000     0.0000 n7         1 SL1      -0.545100
      2 C1           1.4780     0.0000     0.0000 c3         1 SL1       0.287700
      3 C2           1.9450     0.0000     1.4460 c          1 SL1       0.632500
      4 O1           1.1600     0.2510     2.3650 o          1 SL1      -0.596500
      5 N2           3.2890    -0.3500     1.6480 n          1 SL1      -0.018000
      6 C3           3.7310    -0.6090     3.0190 c3         1 SL1      -0.048000
      7 C4           3.4900    -2.0560     3.3640 c          1 SL1       0.581100
      8 O3           2.5780    -2.7230     2.8810 o          1 SL1      -0.574100
      9 N3           4.4180    -2.5190     4.2860 ns         1 SL1      -0.240900
     10 C5           4.4230    -3.8700     4.7970 c3         1 SL1      -0.093300
     11 C6           4.8430    -3.8140     6.2490 c          1 SL1       0.630900
     12 O2           4.8280    -4.7900     6.9950 o          1 SL1      -0.522100
     13 C7           4.2440    -0.5300     0.5890 ca         1 SL1       0.004600
     14 C9           4.1990     0.1950    -0.6200 ca         1 SL1      -0.204900
     15 C8           3.2290     1.3050    -0.8550 ce         1 SL1       0.501500
     16 N4           1.9690     1.2300    -0.5870 n2         1 SL1      -0.524900
     17 C10          3.7300     2.5510    -1.4390 ca         1 SL1      -0.166900
     18 C11          5.0410     2.9440    -1.1950 ca         1 SL1      -0.070000
     19 C12          5.5200     4.1300    -1.7510 ca         1 SL1      -0.103000
     20 C13          4.6850     4.9150    -2.5460 ca         1 SL1      -0.075000
     21 C14          3.3700     4.5130    -2.7860 ca         1 SL1      -0.103000
     22 C15          2.8920     3.3260    -2.2300 ca         1 SL1      -0.070000
     23 C16          5.1260    -0.0680    -1.6450 ca         1 SL1      -0.018000
     24 C17          6.1310    -1.0130    -1.4650 ca         1 SL1      -0.132000
     25 C18          6.2210    -1.7000    -0.2630 ca         1 SL1      -0.079000
     26 C19          5.2910    -1.4590     0.7520 ca         1 SL1      -0.182000
     27 C20          5.2760    -4.8170     3.9510 c3         1 SL1      -0.017400
     28 C21          6.7610    -4.4250     3.8790 c3         1 SL1      -0.030400
     29 C22          7.5720    -5.3720     2.9970 c3         1 SL1       0.157800
     30 N5           8.9490    -4.9440     2.9170 nu         1 SL1      -0.512200
     31 C23          9.9560    -5.5230     2.1740 c2         1 SL1       0.262100
     32 N6           9.6250    -6.6240     1.4260 nz         1 SL1       0.188400
     33 N7          11.1710    -5.0400     2.1870 n2         1 SL1      -0.599100
     34 S           -0.8290    -0.7320    -1.2980 s6         1 SL1       0.888900
     35 O4          -2.2290    -0.3600    -1.2630 o          1 SL1      -0.553300
     36 O5          -0.4320    -2.1260    -1.3650 o          1 SL1      -0.553300
     37 C24         -0.0770     0.1000    -2.6780 c3         1 SL1       0.047700
     38 C25         -0.7030    -0.4350    -3.9290 ca         1 SL1      -0.096300
     39 C26         -1.8380     0.1780    -4.4500 ca         1 SL1      -0.078500
     40 C27         -2.4200    -0.3210    -5.6150 ca         1 SL1      -0.097000
     41 C28         -1.8640    -1.4280    -6.2550 ca         1 SL1      -0.090000
     42 C29         -0.7260    -2.0380    -5.7290 ca         1 SL1      -0.097000
     43 C30         -0.1430    -1.5400    -4.5630 ca         1 SL1      -0.078500
     44 H1          -0.5010     0.2850     0.8180 hn         1 SL1       0.374800
     45 HA           1.8700    -0.8610    -0.5290 h2         1 SL1       0.056700
     46 H3C1         3.1760     0.0220     3.7020 h1         1 SL1       0.053700
     47 H3C2         4.7890    -0.3900     3.1050 h1         1 SL1       0.053700
     48 H3           5.1190    -1.8840     4.6140 hn         1 SL1       0.176500
     49 H5           3.4030    -4.2360     4.7660 h1         1 SL1       0.088700
     50 H6           5.1720    -2.8610     6.6460 h4         1 SL1      -0.033800
     51 H11          5.6870     2.3330    -0.5770 ha         1 SL1       0.112500
     52 H12          6.5400     4.4430    -1.5640 ha         1 SL1       0.109500
     53 H13          5.0560     5.8370    -2.9780 ha         1 SL1       0.109000
     54 H14          2.7210     5.1220    -3.4040 ha         1 SL1       0.109500
     55 H15          1.8720     3.0110    -2.4140 ha         1 SL1       0.112500
     56 H16          5.0520     0.4640    -2.5860 ha         1 SL1       0.127000
     57 H17          6.7730    -1.2850    -2.2940 ha         1 SL1       0.113000
     58 H18          7.0120    -2.4240    -0.1110 ha         1 SL1       0.084000
     59 H19          5.9450    -1.4570     1.6150 ha         1 SL1       0.107000
     60 H201         5.2040    -5.8130     4.3710 hc         1 SL1       0.037700
     61 H202         4.8750    -4.8360     2.9450 hc         1 SL1       0.037700
     62 H211         7.1750    -4.4370     4.8790 hc         1 SL1       0.025700
     63 H212         6.8390    -3.4220     3.4790 hc         1 SL1       0.025700
     64 H221         7.5330    -6.3700     3.4150 h1         1 SL1       0.017700
     65 H222         7.1450    -5.3850     2.0010 h1         1 SL1       0.017700
     66 HB           9.1990    -4.1420     3.4610 hn         1 SL1       0.327800
     67 H6N1         8.9460    -6.3680     0.7370 hn         1 SL1       0.226467
     68 H6N2         9.2450    -7.3310     2.0230 hn         1 SL1       0.226467
     69 H7          11.3850    -4.2360     2.7430 hn         1 SL1       0.378400
     70 H241        -0.2540     1.1660    -2.6050 h1         1 SL1       0.073700
     71 H242         0.9890    -0.0950    -2.6880 h1         1 SL1       0.073700
     72 H26         -2.2690     1.0380    -3.9530 ha         1 SL1       0.111000
     73 H27         -3.3040     0.1530    -6.0240 ha         1 SL1       0.105500
     74 H28         -2.3160    -1.8150    -7.1600 ha         1 SL1       0.105000
     75 H29         -0.2930    -2.8980    -6.2250 ha         1 SL1       0.105500
     76 H30          0.7410    -2.0120    -4.1530 ha         1 SL1       0.111000
     77 H63         10.4450    -6.9770     0.9720 hn         1 SL1       0.226467
@<TRIPOS>BOND
     1     1     2 1   
     2     1    34 1   
     3     1    44 1   
     4     2     3 1   
     5     2    16 1   
     6     2    45 1   
     7     3     4 2   
     8     3     5 1   
     9     5     6 1   
    10     5    13 1   
    11     6     7 1   
    12     6    46 1   
    13     6    47 1   
    14     7     8 2   
    15     7     9 1   
    16     9    10 1   
    17     9    48 1   
    18    10    11 1   
    19    10    27 1   
    20    10    49 1   
    21    11    12 2   
    22    11    50 1   
    23    13    14 ar  
    24    13    26 ar  
    25    14    15 1   
    26    14    23 ar  
    27    15    16 2   
    28    15    17 1   
    29    17    18 ar  
    30    17    22 ar  
    31    18    19 ar  
    32    18    51 1   
    33    19    20 ar  
    34    19    52 1   
    35    20    21 ar  
    36    20    53 1   
    37    21    22 ar  
    38    21    54 1   
    39    22    55 1   
    40    23    24 ar  
    41    23    56 1   
    42    24    25 ar  
    43    24    57 1   
    44    25    26 ar  
    45    25    58 1   
    46    26    59 1   
    47    27    28 1   
    48    27    60 1   
    49    27    61 1   
    50    28    29 1   
    51    28    62 1   
    52    28    63 1   
    53    29    30 1   
    54    29    64 1   
    55    29    65 1   
    56    30    31 1   
    57    30    66 1   
    58    31    32 1   
    59    31    33 2   
    60    32    67 1   
    61    32    68 1   
    62    32    77 1   
    63    33    69 1   
    64    34    35 2   
    65    34    36 2   
    66    34    37 1   
    67    37    38 1   
    68    37    70 1   
    69    37    71 1   
    70    38    39 ar  
    71    38    43 ar  
    72    39    40 ar  
    73    39    72 1   
    74    40    41 ar  
    75    40    73 1   
    76    41    42 ar  
    77    41    74 1   
    78    42    43 ar  
    79    42    75 1   
    80    43    76 1   
@<TRIPOS>SUBSTRUCTURE
     1 SL1         1 TEMP              0 ****  ****    0 ROOT
