@<TRIPOS>MOLECULE
SL2
   63    66     1     0     0
SMALL
bcc


@<TRIPOS>ATOM
      1 PB         -2.0530   -3.4810    1.5570 p5        1 SL2      1.595800
      2 O1B        -3.1470   -2.8550    0.5030 oh        1 SL2     -0.809400
      3 O2B        -1.7690   -2.4560    2.5810 o         1 SL2     -0.889500
      4 O3A        -0.8480   -3.6250    0.4530 os        1 SL2     -0.826800
      5 O3B        -2.5470   -4.8260    1.9260 o         1 SL2     -0.889500
      6 PA          0.3630   -3.9010   -0.5880 p5        1 SL2      1.599800
      7 O1A         1.4980   -4.5730    0.0760 o         1 SL2     -0.887000
      8 O2A        -0.2060   -4.3680   -1.8700 o         1 SL2     -0.887000
      9 O5'         0.8760   -2.3340   -0.8840 os        1 SL2     -0.586200
     10 C5'         1.4350   -2.0760   -2.1260 c3        1 SL2      0.208400
     11 C4'         2.9190   -1.7110   -1.9610 c3        1 SL2      0.109100
     12 O4'         3.4940   -1.4740   -3.2630 os        1 SL2     -0.424600
     13 C3'         3.1530   -0.4440   -1.1390 c3        1 SL2     -0.109400
     14 C2'         4.3410    0.2460   -1.8010 c3        1 SL2      0.113100
     15 C1'         4.6170   -0.5740   -3.1110 c3        1 SL2      0.270800
     16 N9          4.8170    0.2470   -4.2670 nh        1 SL2     -0.254200
     17 C4          5.6460   -0.0910   -5.3520 ca        1 SL2      0.385800
     18 N3          6.4300   -1.1640   -5.6180 nb        1 SL2     -0.713000
     19 C2          7.1270   -1.0470   -6.7800 ca        1 SL2      0.568900
     20 N1          7.1500   -0.0400   -7.6870 nb        1 SL2     -0.780000
     21 C6          6.3440    1.0440   -7.4320 ca        1 SL2      0.557200
     22 C5          5.5660    1.0910   -6.2480 ca        1 SL2     -0.117200
     23 N7          4.7330    2.0520   -5.6820 ne        1 SL2     -0.690800
     24 C8          4.2870    1.5540   -4.5050 c1        1 SL2      0.096400
     25 N6          6.2510    2.0970   -8.3850 nh        1 SL2     -0.894500
     26 O3'         5.5270    0.0420   -0.9950 os        1 SL2     -0.428900
     27 C1          5.9880    1.0570   -0.2250 c         1 SL2      0.664300
     28 OC          5.4250    2.1580   -0.2150 o         1 SL2     -0.555000
     29 CA          7.1790    0.6710    0.5420 ce        1 SL2     -0.167400
     30 CB          7.6660   -0.5730    0.6990 c2        1 SL2     -0.098200
     31 CC          8.9180   -0.5640    1.5610 c3        1 SL2      0.174400
     32 CC1        10.0770   -1.1840    0.7770 c3        1 SL2     -0.079100
     33 CC2         8.6650   -1.4010    2.8150 c3        1 SL2     -0.079100
     34 ND          9.2170    0.9020    1.8310 n3        1 SL2     -0.476100
     35 OR          9.3580    1.1030    3.1480 oh        1 SL2     -0.421300
     36 CE          8.0360    1.6950    1.2790 c3        1 SL2      0.191400
     37 CE1         8.5500    2.7460    0.2930 c3        1 SL2     -0.087600
     38 CE2         7.1990    2.3910    2.3510 c3        1 SL2     -0.087600
     39 H51'        1.3410   -2.9670   -2.8070 h1        1 SL2      0.032700
     40 H52'        0.9030   -1.1990   -2.5920 h1        1 SL2      0.032700
     41 H4'         3.4750   -2.5750   -1.5030 h1        1 SL2      0.052700
     42 H3'         2.2510    0.2160   -1.1780 hc        1 SL2      0.072700
     43 H22'        3.3530   -0.7000   -0.0710 hc        1 SL2      0.072700
     44 H21'        4.1750    1.3380   -1.9940 h1        1 SL2      0.126700
     45 H1'         5.5310   -1.2270   -2.9620 h2        1 SL2      0.057700
     46 H2          7.7780   -1.9080   -7.0230 h5        1 SL2      0.004100
     47 H8         -2.9590   -3.0670   -0.4020 ho        1 SL2      0.424000
     48 H61         7.1430    2.3340   -8.7700 hn        1 SL2      0.359800
     49 H62         5.8250    2.9010   -7.9660 hn        1 SL2      0.359800
     50 HCB         7.2630   -1.5040    0.2920 ha        1 SL2      0.181000
     51 H1CC       10.2700   -0.6180   -0.1650 hc        1 SL2      0.040700
     52 H2CC       11.0060   -1.1890    1.3940 hc        1 SL2      0.040700
     53 H3CC        9.8090   -2.2360    0.5140 hc        1 SL2      0.040700
     54 H4CC        9.5820   -1.4330    3.4490 hc        1 SL2      0.040700
     55 H5CC        7.8320   -0.9630    3.4160 hc        1 SL2      0.040700
     56 H6CC        8.3870   -2.4390    2.5140 hc        1 SL2      0.040700
     57 HOR        10.1280    1.6980    3.2130 ho        1 SL2      0.403000
     58 H1CE        7.6660    3.2400   -0.1830 hc        1 SL2      0.046367
     59 H2CE        9.1590    3.5140    0.8260 hc        1 SL2      0.046367
     60 H3CE        9.1740    2.2800   -0.5050 hc        1 SL2      0.046367
     61 H4CE        6.8390    1.6550    3.1100 hc        1 SL2      0.046367
     62 H5CE        7.8070    3.1690    2.8710 hc        1 SL2      0.046367
     63 H6CE        6.3160    2.8720    1.8610 hc        1 SL2      0.046367
@<TRIPOS>BOND
     1    1    2 1   
     2    1    3 1   
     3    1    4 1   
     4    1    5 1   
     5    2   47 1   
     6    4    6 1   
     7    6    7 1   
     8    6    8 1   
     9    6    9 1   
    10    9   10 1   
    11   10   11 1   
    12   10   39 1   
    13   10   40 1   
    14   11   12 1   
    15   11   13 1   
    16   11   41 1   
    17   12   15 1   
    18   13   14 1   
    19   13   42 1   
    20   13   43 1   
    21   14   15 1   
    22   14   26 1   
    23   14   44 1   
    24   15   16 1   
    25   15   45 1   
    26   16   17 1   
    27   16   24 2   
    28   17   18 ar  
    29   17   22 ar  
    30   18   19 ar  
    31   19   20 ar  
    32   19   46 1   
    33   20   21 ar  
    34   21   22 ar  
    35   21   25 1   
    36   22   23 1   
    37   23   24 2   
    38   25   48 1   
    39   25   49 1   
    40   26   27 1   
    41   27   28 2   
    42   27   29 1   
    43   29   30 2   
    44   29   36 1   
    45   30   31 1   
    46   30   50 1   
    47   31   32 1   
    48   31   33 1   
    49   31   34 1   
    50   32   51 1   
    51   32   52 1   
    52   32   53 1   
    53   33   54 1   
    54   33   55 1   
    55   33   56 1   
    56   34   35 1   
    57   34   36 1   
    58   35   57 1   
    59   36   37 1   
    60   36   38 1   
    61   37   58 1   
    62   37   59 1   
    63   37   60 1   
    64   38   61 1   
    65   38   62 1   
    66   38   63 1   
@<TRIPOS>SUBSTRUCTURE
     1 SL2         1 TEMP              0 ****  ****    0 ROOT
