@<TRIPOS>MOLECULE
molecule
   63    66     1     0     0
SMALL
bcc


@<TRIPOS>ATOM
      1 PB           0.0000     0.0000     0.0000 p5         1 SL2       1.225900
      2 O1B          1.5000     0.0000     0.0000 o          1 SL2      -0.923500
      3 O2B         -0.6890     0.0000     1.4610 o          1 SL2      -0.923500
      4 O3A         -0.6750    -1.2770    -0.7240 os         1 SL2      -0.677800
      5 O3B         -0.6920     1.2580    -0.7440 o          1 SL2      -0.923500
      6 PA          -0.5650    -2.8580    -0.4050 p5         1 SL2       1.388800
      7 O1A         -1.0330    -3.2540     0.9650 o          1 SL2      -0.857000
      8 O2A         -1.3840    -3.5510    -1.6160 o          1 SL2      -0.857000
      9 O5'          0.9880    -3.1840    -0.7180 os         1 SL2      -0.585200
     10 C5'          1.5410    -2.8530    -1.9820 c3         1 SL2       0.207400
     11 C4'          3.0050    -3.2660    -2.0050 c3         1 SL2       0.127100
     12 O4'          3.5690    -2.9020    -3.2800 os         1 SL2      -0.438600
     13 C3'          3.8350    -2.5640    -0.9410 c3         1 SL2      -0.129400
     14 C2'          4.3680    -1.3520    -1.6710 c3         1 SL2       0.101100
     15 C1'          4.5950    -1.9180    -3.0650 c3         1 SL2       0.251800
     16 N9           4.5460    -0.9180    -4.1290 na         1 SL2      -0.237000
     17 C4           5.6040    -0.2440    -4.6680 ca         1 SL2       0.440800
     18 N3           6.8990    -0.3540    -4.3370 nb         1 SL2      -0.704000
     19 C2           7.6510     0.4780    -5.0910 ca         1 SL2       0.639900
     20 N1           7.2550     1.3350    -6.0630 nb         1 SL2      -0.823000
     21 C6           5.9310     1.3950    -6.3440 ca         1 SL2       0.739200
     22 C5           5.0520     0.5840    -5.6320 ca         1 SL2      -0.193200
     23 N7           3.6900     0.4250    -5.6880 nc         1 SL2      -0.602100
     24 C8           3.4190    -0.4830    -4.7740 cd         1 SL2       0.472700
     25 N6           5.4590     2.2640    -7.3420 nv         1 SL2      -1.009500
     26 O3'          5.5750    -0.8830    -1.1050 os         1 SL2      -0.421900
     27 C1           5.4930    -0.4360     0.1770 c          1 SL2       0.612300
     28 OC           4.4880    -0.4000     0.8800 o          1 SL2      -0.385000
     29 CA           6.8070     0.0100     0.6120 ce         1 SL2      -0.135400
     30 CB           7.9350    -0.5300     0.1380 c2         1 SL2      -0.137200
     31 CC           9.1350     0.1090     0.7890 c3         1 SL2       0.191400
     32 CC1         10.1420     0.6010    -0.2560 c3         1 SL2      -0.080100
     33 CC2          9.8080    -0.9070     1.7250 c3         1 SL2      -0.080100
     34 ND           8.5350     1.2900     1.4480 n3         1 SL2      -0.509100
     35 OR           9.2300     1.7260     2.6260 oh         1 SL2      -0.445300
     36 CE           7.0800     1.0790     1.6360 c3         1 SL2       0.226400
     37 CE1          6.3750     2.4030     1.3170 c3         1 SL2      -0.083600
     38 CE2          6.6660     0.5890     3.0330 c3         1 SL2      -0.083600
     39 H51'         1.4630    -1.7850    -2.1440 h1         1 SL2       0.046200
     40 H52'         1.0040    -3.3780    -2.7620 h1         1 SL2       0.046200
     41 H4'          3.0840    -4.3380    -1.8710 h1         1 SL2       0.048700
     42 H3'          4.6490    -3.1980    -0.6110 hc         1 SL2       0.091700
     43 H22'         3.2120    -2.2630    -0.1070 hc         1 SL2       0.091700
     44 H21'         3.6210    -0.5670    -1.6990 h1         1 SL2       0.154700
     45 H1'          5.5600    -2.4110    -3.0860 h2         1 SL2       0.065700
     46 H2           8.7160     0.4550    -4.8920 h5         1 SL2       0.022100
     47 H8           2.4210    -0.8450    -4.5580 h5         1 SL2       0.115800
     48 H61          6.1010     2.8410    -7.8480 hn         1 SL2       0.435800
     49 H62          4.4800     2.3070    -7.5460 hn         1 SL2       0.435800
     50 HCB          7.9610    -1.5780    -0.1350 ha         1 SL2       0.153000
     51 H1CC        11.0230     0.9840     0.2440 hc         1 SL2       0.035033
     52 H2CC        10.4220    -0.2220    -0.9020 hc         1 SL2       0.035033
     53 H3CC         9.6910     1.3880    -0.8480 hc         1 SL2       0.035033
     54 H4CC         9.0740    -1.3060     2.4140 hc         1 SL2       0.035033
     55 H5CC        10.2280    -1.7160     1.1380 hc         1 SL2       0.035033
     56 H6CC        10.5980    -0.4180     2.2820 hc         1 SL2       0.035033
     57 HOR          9.5870     2.5870     2.4810 ho         1 SL2       0.399000
     58 H1CE         6.5680     2.6750     0.2860 hc         1 SL2       0.051033
     59 H2CE         6.7510     3.1790     1.9720 hc         1 SL2       0.051033
     60 H3CE         5.3080     2.2890     1.4670 hc         1 SL2       0.051033
     61 H4CE         7.1820     1.1700     3.7880 hc         1 SL2       0.051033
     62 H5CE         6.9280    -0.4570     3.1420 hc         1 SL2       0.051033
     63 H6CE         5.5960     0.7070     3.1550 hc         1 SL2       0.051033
@<TRIPOS>BOND
     1     1     2 1
     2     1     3 1
     3     1     4 1
     4     1     5 1
     5     4     6 1
     6     6     7 1
     7     6     8 1
     8     6     9 1
     9     9    10 1
    10    10    11 1
    11    10    39 1
    12    10    40 1
    13    11    12 1
    14    11    13 1
    15    11    41 1
    16    12    15 1
    17    13    14 1
    18    13    42 1
    19    13    43 1
    20    14    15 1
    21    14    26 1
    22    14    44 1
    23    15    16 1
    24    15    45 1
    25    16    17 1
    26    16    24 1
    27    17    18 ar
    28    17    22 ar
    29    18    19 ar
    30    19    20 ar
    31    19    46 1
    32    20    21 ar
    33    21    22 ar
    34    21    25 1
    35    22    23 1
    36    23    24 2
    37    24    47 1
    38    25    48 1
    39    25    49 1
    40    26    27 1
    41    27    28 2
    42    27    29 1
    43    29    30 2
    44    29    36 1
    45    30    31 1
    46    30    50 1
    47    31    32 1
    48    31    33 1
    49    31    34 1
    50    32    51 1
    51    32    52 1
    52    32    53 1
    53    33    54 1
    54    33    55 1
    55    33    56 1
    56    34    35 1
    57    34    36 1
    58    35    57 1
    59    36    37 1
    60    36    38 1
    61    37    58 1
    62    37    59 1
    63    37    60 1
    64    38    61 1
    65    38    62 1
    66    38    63 1
@<TRIPOS>SUBSTRUCTURE
     1 SL2         1 TEMP              0 ****  ****    0 ROOT
