@<TRIPOS>MOLECULE
molecule
   63    66     1     0     0
SMALL
bcc


@<TRIPOS>ATOM
      1 N6           0.0000     0.0000     0.0000 nv         1 SL3      -1.006500
      2 C6           1.4050     0.0000     0.0000 ca         1 SL3       0.745200
      3 N1           2.0870     0.0000     1.1700 nb         1 SL3      -0.827000
      4 C2           3.4400     0.0000     1.1070 ca         1 SL3       0.641900
      5 N3           4.2370    -0.0010     0.0150 nb         1 SL3      -0.723000
      6 C4           3.4980    -0.0010    -1.1050 ca         1 SL3       0.420800
      7 C5           2.1160    -0.0010    -1.1970 ca         1 SL3      -0.186200
      8 N7           1.7160    -0.0020    -2.5100 nc         1 SL3      -0.592100
      9 C8           2.8360    -0.0030    -3.2020 cd         1 SL3       0.492700
     10 N9           3.9460    -0.0020    -2.3970 na         1 SL3      -0.251000
     11 C1'          5.3390    -0.0020    -2.8460 c3         1 SL3       0.254800
     12 C2'          5.9070    -1.3940    -3.0920 c3         1 SL3      -0.171400
     13 O4'          5.4450     0.7360    -4.0770 os         1 SL3      -0.388600
     14 C4'          6.1410    -0.0820    -5.0300 c3         1 SL3       0.135100
     15 C5'          5.6480     0.2320    -6.4310 c3         1 SL3       0.219400
     16 O5'          4.2510     0.0000    -6.4810 os         1 SL3      -0.595200
     17 PA           3.4380     0.2500    -7.8590 p5         1 SL3       1.376800
     18 O2A          1.9650    -0.0310    -7.7790 o          1 SL3      -0.853500
     19 O1A          3.8060     1.7700    -8.2730 o          1 SL3      -0.853500
     20 O3A          4.2230    -0.6350    -8.9600 os         1 SL3      -0.672800
     21 PB           4.3960    -2.2340    -9.1070 p5         1 SL3       1.221900
     22 O2B          5.0660    -2.9020    -7.9420 o          1 SL3      -0.933833
     23 O1B          5.1590    -2.3920   -10.5230 o          1 SL3      -0.933833
     24 O3B          2.8970    -2.7440    -9.4270 o          1 SL3      -0.933833
     25 C3'          5.8820    -1.5160    -4.6000 c3         1 SL3       0.128100
     26 O3'          6.8790    -2.4040    -5.0600 os         1 SL3      -0.353900
     27 C1           6.7680    -3.6920    -4.6360 c          1 SL3       0.690300
     28 OC           5.8980    -4.1510    -3.9010 o          1 SL3      -0.556000
     29 CA           7.8610    -4.4730    -5.1910 ce         1 SL3      -0.138400
     30 CB           9.0500    -3.9330    -5.4620 c2         1 SL3      -0.108200
     31 CC           9.9960    -4.9800    -5.9830 c3         1 SL3       0.164400
     32 CC1         11.0420    -5.3210    -4.9040 c3         1 SL3      -0.073100
     33 CC2         10.7610    -4.4750    -7.2210 c3         1 SL3      -0.073100
     34 ND           9.1350    -6.2000    -6.2110 n3         1 SL3      -0.455100
     35 OR           8.8330    -6.2480    -7.6370 oh         1 SL3      -0.415300
     36 CE           7.8310    -5.9460    -5.4850 c3         1 SL3       0.198400
     37 CE2          7.8580    -6.7530    -4.1720 c3         1 SL3      -0.075600
     38 CE1          6.5710    -6.3790    -6.2640 c3         1 SL3      -0.075600
     39 H61         -0.5000     0.0040     0.8670 hn         1 SL3       0.438800
     40 H62         -0.5000    -0.0050    -0.8670 hn         1 SL3       0.438800
     41 H2           3.9530     0.0000     2.0610 h5         1 SL3       0.018100
     42 H8           2.8760    -0.0030    -4.2850 h5         1 SL3       0.152800
     43 H1'          5.9480     0.4900    -2.0970 h2         1 SL3       0.058700
     44 H21'         6.9230    -1.4620    -2.7210 hc         1 SL3       0.064700
     45 H22'         5.2760    -2.1490    -2.6390 hc         1 SL3       0.064700
     46 H4'          7.2030     0.1220    -4.9660 h1         1 SL3       0.020700
     47 H51'         5.8530     1.2690    -6.6650 h1         1 SL3       0.062200
     48 H52'         6.1490    -0.4100    -7.1450 h1         1 SL3       0.062200
     49 H3'          4.9020    -1.8350    -4.9320 h1         1 SL3       0.144700
     50 HCB          9.4250    -3.1170    -4.8570 ha         1 SL3       0.136000
     51 H1CC        11.4510    -6.3050    -5.0960 hc         1 SL3       0.036033
     52 H2CC        10.5710    -5.3100    -3.9280 hc         1 SL3       0.036033
     53 H3CC        11.8380    -4.5870    -4.9290 hc         1 SL3       0.036033
     54 H4CC        10.0540    -4.1800    -7.9860 hc         1 SL3       0.036033
     55 H5CC        11.3950    -5.2670    -7.6010 hc         1 SL3       0.036033
     56 H6CC        11.3710    -3.6240    -6.9450 hc         1 SL3       0.036033
     57 HOR          9.0640    -7.0950    -7.9790 ho         1 SL3       0.388000
     58 H4CE         8.3930    -7.6820    -4.3300 hc         1 SL3       0.048367
     59 H5CE         8.3580    -6.1760    -3.4030 hc         1 SL3       0.048367
     60 H6CE         6.8440    -6.9690    -3.8590 hc         1 SL3       0.048367
     61 H1CE         6.6720    -7.4150    -6.5660 hc         1 SL3       0.048367
     62 H2CE         5.7000    -6.2720    -5.6300 hc         1 SL3       0.048367
     63 H3CE         6.4580    -5.7560    -7.1430 hc         1 SL3       0.048367
@<TRIPOS>BOND
     1     1     2 1
     2     1    39 1
     3     1    40 1
     4     2     3 ar
     5     2     7 ar
     6     3     4 ar
     7     4     5 ar
     8     4    41 1
     9     5     6 ar
    10     6     7 ar
    11     6    10 1
    12     7     8 1
    13     8     9 2
    14     9    10 1
    15     9    42 1
    16    10    11 1
    17    11    12 1
    18    11    13 1
    19    11    43 1
    20    12    25 1
    21    12    44 1
    22    12    45 1
    23    13    14 1
    24    14    15 1
    25    14    25 1
    26    14    46 1
    27    15    16 1
    28    15    47 1
    29    15    48 1
    30    16    17 1
    31    17    18 1
    32    17    19 1
    33    17    20 1
    34    20    21 1
    35    21    22 1
    36    21    23 1
    37    21    24 1
    38    25    26 1
    39    25    49 1
    40    26    27 1
    41    27    28 2
    42    27    29 1
    43    29    30 2
    44    29    36 1
    45    30    31 1
    46    30    50 1
    47    31    32 1
    48    31    33 1
    49    31    34 1
    50    32    51 1
    51    32    52 1
    52    32    53 1
    53    33    54 1
    54    33    55 1
    55    33    56 1
    56    34    35 1
    57    34    36 1
    58    35    57 1
    59    36    37 1
    60    36    38 1
    61    37    58 1
    62    37    59 1
    63    37    60 1
    64    38    61 1
    65    38    62 1
    66    38    63 1
@<TRIPOS>SUBSTRUCTURE
     1 SL3         1 TEMP              0 ****  ****    0 ROOT
