@<TRIPOS>MOLECULE
SL3
   63    66     1     0     0
SMALL
bcc


@<TRIPOS>ATOM
      1 N6          0.8260    2.4550    0.1980 nh        1 SL3     -0.919500
      2 C6          2.0300    1.7360    0.1130 ca        1 SL3      0.664200
      3 N1          2.8850    1.6790    1.1810 nb        1 SL3     -0.805000
      4 C2          4.0760    1.0430    0.9840 ca        1 SL3      0.620900
      5 N3          4.5670    0.4210   -0.1080 nb        1 SL3     -0.705000
      6 C4          3.7090    0.4510   -1.1740 ca        1 SL3      0.423800
      7 C5          2.3960    1.1120   -1.1150 ca        1 SL3     -0.188200
      8 N7          1.7360    0.9610   -2.3400 nc        1 SL3     -0.616100
      9 C8          2.5810    0.2450   -3.1110 cd        1 SL3      0.489700
     10 N9          3.7840   -0.1030   -2.4550 na        1 SL3     -0.248000
     11 C1'         4.9340   -0.7990   -3.0280 c3        1 SL3      0.248800
     12 C2'         4.6220   -2.2210   -3.5560 c3        1 SL3     -0.132400
     13 O4'         5.4740   -0.0430   -4.1100 os        1 SL3     -0.453600
     14 C4'         5.4640   -0.8340   -5.3330 c3        1 SL3      0.109100
     15 C5'         4.3390   -0.3590   -6.2660 c3        1 SL3      0.200400
     16 O5'         3.1020   -0.8510   -5.9070 os        1 SL3     -0.599200
     17 PA          2.2120   -1.5790   -7.1770 p5        1 SL3      1.573800
     18 O2A         0.9960   -2.0140   -6.4470 o         1 SL3     -0.903000
     19 O1A         2.1230   -0.4900   -8.1820 o         1 SL3     -0.903000
     20 O3A         3.2310   -2.7120   -7.5590 os        1 SL3     -0.822800
     21 PB          4.2910   -3.9850   -8.0870 p5        1 SL3      1.468900
     22 O2B         4.8540   -4.4890   -6.7660 o         1 SL3     -0.943833
     23 O1B         5.3830   -3.2820   -8.8420 o         1 SL3     -0.943833
     24 O3B         3.4260   -4.9360   -8.8480 o         1 SL3     -0.943833
     25 C3'         5.3550   -2.3030   -4.8930 c3        1 SL3      0.110100
     26 O3'         6.7350   -2.7240   -4.7290 os        1 SL3     -0.457900
     27 C1          6.9860   -4.0330   -4.4610 c         1 SL3      0.708300
     28 OC          6.2840   -4.6600   -3.6640 o         1 SL3     -0.549000
     29 CA          8.2510   -4.5160   -5.0470 ce        1 SL3     -0.072400
     30 CB          9.4830   -4.3600   -4.5350 c2        1 SL3     -0.225200
     31 CC         10.5180   -5.0560   -5.4010 c3        1 SL3      0.157400
     32 CC1        11.3580   -6.0040   -4.5450 c3        1 SL3     -0.078600
     33 CC2        11.4440   -4.0050   -6.0150 c3        1 SL3     -0.078600
     34 ND          9.7150   -5.8550   -6.4190 n3        1 SL3     -0.446100
     35 OR         10.2590   -5.8210   -7.6200 oh        1 SL3     -0.410300
     36 CE          8.2780   -5.3150   -6.3480 c3        1 SL3      0.195400
     37 CE2         7.2820   -6.4690   -6.2770 c3        1 SL3     -0.129100
     38 CE1         7.8910   -4.4030   -7.5080 c3        1 SL3     -0.129100
     39 H61         0.4240    2.4920    1.1080 hn        1 SL3      0.393300
     40 H62         0.1750    2.2020   -0.5150 hn        1 SL3      0.393300
     41 H2          4.7420    1.0340    1.8710 h5        1 SL3      0.018100
     42 H8          2.4070   -0.0810   -4.1700 h5        1 SL3      0.180800
     43 H1'         5.7290   -0.8150   -2.2250 h2        1 SL3      0.063700
     44 H21'        3.5290   -2.3570   -3.7690 hc        1 SL3      0.091200
     45 H22'        4.9630   -2.9950   -2.8330 hc        1 SL3      0.091200
     46 H4'         6.4610   -0.6160   -5.8010 h1        1 SL3      0.064700
     47 H51'        4.3330    0.7710   -6.1960 h1        1 SL3      0.030700
     48 H52'        4.5990   -0.6640   -7.3200 h1        1 SL3      0.030700
     49 H3'         4.8690   -3.0120   -5.6710 h1        1 SL3      0.247700
     50 HCB         9.7840   -3.8260   -3.6370 ha        1 SL3      0.128000
     51 H1CC       12.1130   -6.5310   -5.1760 hc        1 SL3      0.026867
     52 H2CC       11.8890   -5.4170   -3.7580 hc        1 SL3      0.026867
     53 H3CC       10.7090   -6.7650   -4.0500 hc        1 SL3      0.026867
     54 H4CC       12.1990   -4.4900   -6.6780 hc        1 SL3      0.026867
     55 H5CC       10.8520   -3.2710   -6.6150 hc        1 SL3      0.026867
     56 H6CC       11.9730   -3.4550   -5.2010 hc        1 SL3      0.026867
     57 HOR        10.0930   -4.9620   -8.0660 ho        1 SL3      0.378000
     58 H4CE        7.3460   -7.0870   -7.2030 hc        1 SL3      0.076700
     59 H5CE        6.2450   -6.0160   -6.2090 hc        1 SL3      0.076700
     60 H6CE        7.4740   -7.1160   -5.3900 hc        1 SL3      0.076700
     61 H1CE        8.5250   -3.4870   -7.5320 hc        1 SL3      0.076700
     62 H2CE        6.7910   -4.0840   -7.4130 hc        1 SL3      0.076700
     63 H3CE        7.9660   -4.9450   -8.4800 hc        1 SL3      0.076700
@<TRIPOS>BOND
     1    1    2 1   
     2    1   39 1   
     3    1   40 1   
     4    2    3 ar  
     5    2    7 ar  
     6    3    4 ar  
     7    4    5 ar  
     8    4   41 1   
     9    5    6 ar  
    10    6    7 ar  
    11    6   10 1   
    12    7    8 1   
    13    8    9 2   
    14    9   10 1   
    15    9   42 1   
    16   10   11 1   
    17   11   12 1   
    18   11   13 1   
    19   11   43 1   
    20   12   25 1   
    21   12   44 1   
    22   12   45 1   
    23   13   14 1   
    24   14   15 1   
    25   14   25 1   
    26   14   46 1   
    27   15   16 1   
    28   15   47 1   
    29   15   48 1   
    30   16   17 1   
    31   17   18 1   
    32   17   19 1   
    33   17   20 1   
    34   20   21 1   
    35   21   22 1   
    36   21   23 1   
    37   21   24 1   
    38   25   26 1   
    39   25   49 1   
    40   26   27 1   
    41   27   28 2   
    42   27   29 1   
    43   29   30 2   
    44   29   36 1   
    45   30   31 1   
    46   30   50 1   
    47   31   32 1   
    48   31   33 1   
    49   31   34 1   
    50   32   51 1   
    51   32   52 1   
    52   32   53 1   
    53   33   54 1   
    54   33   55 1   
    55   33   56 1   
    56   34   35 1   
    57   34   36 1   
    58   35   57 1   
    59   36   37 1   
    60   36   38 1   
    61   37   58 1   
    62   37   59 1   
    63   37   60 1   
    64   38   61 1   
    65   38   62 1   
    66   38   63 1   
@<TRIPOS>SUBSTRUCTURE
     1 SL3         1 TEMP              0 ****  ****    0 ROOT
