@<TRIPOS>MOLECULE
SL5
   28    28     1     0     0
SMALL
bcc


@<TRIPOS>ATOM
      1 C            0.0000     0.0000     0.0000 c          1 SL5       0.970600
      2 N            0.1290     0.0000     2.4500 n7         1 SL5      -0.621200
      3 O            1.2090     0.0000     0.0000 o          1 SL5      -0.891300
      4 C5           0.2160     1.2960     3.1600 c3         1 SL5       0.335300
      5 C6           0.2660     1.0680     4.6720 c3         1 SL5       0.213400
      6 O7          -0.9160     0.3840     5.0910 os         1 SL5      -0.360600
      7 C8          -0.9690     0.1200     6.4940 c3         1 SL5       0.196400
      8 C9          -2.2710    -0.6120     6.8270 c3         1 SL5       0.222400
      9 CA          -0.7530     0.2360     1.2840 c3         1 SL5      -0.012500
     10 CB          -1.1690     1.7190     1.4000 c3         1 SL5       0.176100
     11 O10         -2.2690    -1.8960     6.2010 oh         1 SL5      -0.568800
     12 OG1         -0.9840     2.0160     2.8040 os         1 SL5      -0.419600
     13 CG2         -2.6340     1.9000     1.0000 c3         1 SL5       0.002900
     14 OXT         -0.6710    -0.2030    -1.1440 o          1 SL5      -0.891300
     15 HN           1.0400    -0.2670     2.1320 hn         1 SL5       0.292800
     16 H5           1.0900     1.8440     2.8290 h2         1 SL5      -0.001300
     17 H6           0.3280     2.0240     5.1790 h1         1 SL5      -0.018800
     18 H6A          1.1350     0.4710     4.9190 h1         1 SL5      -0.018800
     19 H8          -0.1250    -0.4970     6.7780 h1         1 SL5      -0.014800
     20 H8A         -0.9310     1.0560     7.0390 h1         1 SL5      -0.014800
     21 H9A         -2.3520    -0.7340     7.9010 h1         1 SL5      -0.018800
     22 H9B         -3.1130    -0.0340     6.4650 h1         1 SL5      -0.018800
     23 HA          -1.6260    -0.4030     1.3390 h1         1 SL5       0.050700
     24 HB          -0.5220     2.3420     0.7930 h1         1 SL5       0.021700
     25 HO10        -3.0600    -2.3570     6.4250 ho         1 SL5       0.374000
     26 HG2         -2.7500     1.6820    -0.0550 hc         1 SL5       0.005033
     27 HG2A        -2.9380     2.9220     1.1920 hc         1 SL5       0.005033
     28 HG2B        -3.2530     1.2240     1.5780 hc         1 SL5       0.005033
@<TRIPOS>BOND
     1     1     3 1   
     2     1     9 1   
     3     1    14 1   
     4     2     4 1   
     5     2     9 1   
     6     2    15 1   
     7     4     5 1   
     8     4    12 1   
     9     4    16 1   
    10     5     6 1   
    11     5    17 1   
    12     5    18 1   
    13     6     7 1   
    14     7     8 1   
    15     7    19 1   
    16     7    20 1   
    17     8    11 1   
    18     8    21 1   
    19     8    22 1   
    20     9    10 1   
    21     9    23 1   
    22    10    12 1   
    23    10    13 1   
    24    10    24 1   
    25    11    25 1   
    26    13    26 1   
    27    13    27 1   
    28    13    28 1   
@<TRIPOS>SUBSTRUCTURE
     1 SL5         1 TEMP              0 ****  ****    0 ROOT
