@<TRIPOS>MOLECULE
molecule
   28    28     1     0     0
SMALL
bcc


@<TRIPOS>ATOM
      1 C            0.0000     0.0000     0.0000 c          1 SL5       0.878600
      2 N            0.1290     0.0000     2.4500 n7         1 SL5      -0.811200
      3 O            1.2090     0.0000     0.0000 o          1 SL5      -0.845300
      4 C5           0.2160     1.2960     3.1600 c3         1 SL5       0.356300
      5 C6           0.2660     1.0680     4.6720 c3         1 SL5       0.155400
      6 O7          -0.9160     0.3840     5.0910 os         1 SL5      -0.373600
      7 C8          -0.9690     0.1200     6.4940 c3         1 SL5       0.138400
      8 C9          -2.2710    -0.6120     6.8270 c3         1 SL5       0.145400
      9 CA          -0.7530     0.2360     1.2840 c3         1 SL5       0.029500
     10 CB          -1.1690     1.7190     1.4000 c3         1 SL5       0.128100
     11 O10         -2.2690    -1.8960     6.2010 oh         1 SL5      -0.585800
     12 OG1         -0.9840     2.0160     2.8040 os         1 SL5      -0.427600
     13 CG2         -2.6340     1.9000     1.0000 c3         1 SL5      -0.079100
     14 OXT         -0.6710    -0.2030    -1.1440 o          1 SL5      -0.845300
     15 HN           1.0400    -0.2670     2.1320 hn         1 SL5       0.377800
     16 H5           1.0900     1.8440     2.8290 h2         1 SL5       0.026700
     17 H6           0.3280     2.0240     5.1790 h1         1 SL5       0.014700
     18 H6A          1.1350     0.4710     4.9190 h1         1 SL5       0.014700
     19 H8          -0.1250    -0.4970     6.7780 h1         1 SL5       0.018700
     20 H8A         -0.9310     1.0560     7.0390 h1         1 SL5       0.018700
     21 H9A         -2.3520    -0.7340     7.9010 h1         1 SL5       0.018200
     22 H9B         -3.1130    -0.0340     6.4650 h1         1 SL5       0.018200
     23 HA          -1.6260    -0.4030     1.3390 h1         1 SL5       0.077700
     24 HB          -0.5220     2.3420     0.7930 h1         1 SL5       0.051700
     25 HO10        -3.0600    -2.3570     6.4250 ho         1 SL5       0.388000
     26 HG2         -2.7500     1.6820    -0.0550 hc         1 SL5       0.037033
     27 HG2A        -2.9380     2.9220     1.1920 hc         1 SL5       0.037033
     28 HG2B        -3.2530     1.2240     1.5780 hc         1 SL5       0.037033
@<TRIPOS>BOND
     1     1     3 1
     2     1     9 1
     3     1    14 1
     4     2     4 1
     5     2     9 1
     6     4     5 1
     7     4    12 1
     8     5     6 1
     9     6     7 1
    10     7     8 1
    11     9    10 1
    12    10    12 1
    13    10    13 1
    14     2    15 1
    15     4    16 1
    16     5    17 1
    17     5    18 1
    18     7    19 1
    19     7    20 1
    20     8    21 1
    21     8    22 1
    22     9    23 1
    23    10    24 1
    24     8    11 1
    25    11    25 1
    26    13    26 1
    27    13    27 1
    28    13    28 1
@<TRIPOS>SUBSTRUCTURE
     1 SL5         1 TEMP              0 ****  ****    0 ROOT
