@<TRIPOS>MOLECULE
molecule
   58    60     1     0     0
SMALL
bcc


@<TRIPOS>ATOM
      1 Cl2          0.0000     0.0000     0.0000 cl         1 SL6      -0.143400
      2 C19          1.7360     0.0000     0.0000 ca         1 SL6       0.020400
      3 C18          2.4290     0.0000     1.1980 ca         1 SL6      -0.126500
      4 C17          3.8100     0.0000     1.1970 ca         1 SL6      -0.110000
      5 C20          2.4280    -0.0060    -1.1990 ca         1 SL6      -0.126500
      6 C21          3.8090    -0.0060    -1.1980 ca         1 SL6      -0.110000
      7 C16          4.5010     0.0000    -0.0010 ca         1 SL6      -0.067300
      8 C15          6.0080    -0.0000    -0.0010 c3         1 SL6      -0.018100
      9 C11          6.5190    -1.4430    -0.0050 c3         1 SL6      -0.137000
     10 C10          6.0970    -2.1380     1.2920 c3         1 SL6      -0.067900
     11 C9           6.7380    -1.4220     2.4810 c3         1 SL6       0.158800
     12 C14          5.9360    -2.1790    -1.1850 c          1 SL6       0.571300
     13 O27          5.1730    -3.1050    -1.0050 o          1 SL6      -0.632100
     14 C22          6.2790    -1.7890    -2.5020 ce         1 SL6      -0.596200
     15 C23          5.8410    -2.5170    -3.5600 cf         1 SL6       0.304900
     16 O28          5.0770    -3.6130    -3.3560 oh         1 SL6      -0.477100
     17 C24          6.2010    -2.1090    -4.9380 c          1 SL6       0.826800
     18 O26          5.7650    -2.8310    -5.9890 o          1 SL6      -0.775300
     19 O25          6.8870    -1.1250    -5.1210 o          1 SL6      -0.775300
     20 C12          8.0470    -1.4450    -0.1030 c3         1 SL6      -0.067900
     21 C13          8.6320    -0.7480     1.1270 c3         1 SL6       0.158800
     22 N8           8.2000    -1.4510     2.3420 n3         1 SL6      -0.731600
     23 C7           8.8540    -0.8950     3.5330 c3         1 SL6       0.165800
     24 C2          10.3590    -1.1680     3.4640 c3         1 SL6      -0.069700
     25 C3          11.0560    -0.4800     4.6400 c3         1 SL6      -0.072900
     26 C4          12.5600    -0.7530     4.5700 c3         1 SL6      -0.079900
     27 C5          12.8090    -2.2610     4.6390 c3         1 SL6      -0.079400
     28 C6          12.1120    -2.9470     3.4620 c3         1 SL6      -0.079900
     29 C1          10.6080    -2.6750     3.5320 c3         1 SL6      -0.072900
     30 H18          1.8880     0.0000     2.1360 ha         1 SL6       0.135000
     31 H20          1.8860    -0.0110    -2.1370 ha         1 SL6       0.135000
     32 H17          4.3530     0.0030     2.1350 ha         1 SL6       0.152500
     33 H21          4.3510    -0.0080    -2.1360 ha         1 SL6       0.152500
     34 H151         6.3690     0.5130    -0.8850 hc         1 SL6       0.060200
     35 H152         6.3700     0.5080     0.8840 hc         1 SL6       0.060200
     36 H101         5.0180    -2.0990     1.3870 hc         1 SL6       0.063700
     37 H102         6.4260    -3.1700     1.2710 hc         1 SL6       0.063700
     38 H121         8.4040    -2.4670    -0.1420 hc         1 SL6       0.063700
     39 H122         8.3520    -0.9150    -0.9970 hc         1 SL6       0.063700
     40 H91C         6.4550    -1.9230     3.3990 h1         1 SL6       0.028700
     41 H92C         6.4010    -0.3930     2.5070 h1         1 SL6       0.028700
     42 H22          6.7570    -2.5950    -1.9580 ha         1 SL6       0.197000
     43 H28          5.2300    -4.2360    -4.0470 ho         1 SL6       0.438000
     44 H131         8.2810     0.2770     1.1610 h1         1 SL6       0.028700
     45 H132         9.7140    -0.7630     1.0690 h1         1 SL6       0.028700
     46 H71C         8.4440    -1.3610     4.4210 h1         1 SL6       0.027700
     47 H72C         8.6820     0.1740     3.5730 h1         1 SL6       0.027700
     48 H2          10.7580    -0.7800     2.5340 hc         1 SL6       0.056700
     49 H31C        10.8810     0.5880     4.5880 hc         1 SL6       0.044700
     50 H32C        10.6620    -0.8710     5.5700 hc         1 SL6       0.044700
     51 H11C        10.1150    -3.1590     2.6980 hc         1 SL6       0.044700
     52 H12C        10.2150    -3.0620     4.4640 hc         1 SL6       0.044700
     53 H41C        13.0520    -0.2680     5.4050 hc         1 SL6       0.037700
     54 H42C        12.9540    -0.3650     3.6380 hc         1 SL6       0.037700
     55 H51C        13.8740    -2.4530     4.5880 hc         1 SL6       0.034700
     56 H52C        12.4120    -2.6490     5.5690 hc         1 SL6       0.034700
     57 H61C        12.2870    -4.0150     3.5130 hc         1 SL6       0.037700
     58 H62C        12.5050    -2.5550     2.5320 hc         1 SL6       0.037700
@<TRIPOS>BOND
     1     1     2 1
     2     2     3 ar
     3     2     5 ar
     4     3     4 ar
     5     4     7 ar
     6     5     6 ar
     7     6     7 ar
     8     7     8 1
     9     8     9 1
    10     9    10 1
    11     9    12 1
    12     9    20 1
    13    10    11 1
    14    11    22 1
    15    12    13 2
    16    12    14 1
    17    14    15 2
    18    15    16 1
    19    15    17 1
    20    17    18 1
    21    17    19 1
    22    20    21 1
    23    21    22 1
    24    22    23 1
    25    23    24 1
    26    24    25 1
    27    24    29 1
    28    25    26 1
    29    26    27 1
    30    27    28 1
    31    28    29 1
    32     3    30 1
    33     5    31 1
    34     4    32 1
    35     6    33 1
    36     8    34 1
    37     8    35 1
    38    10    36 1
    39    10    37 1
    40    20    38 1
    41    20    39 1
    42    11    40 1
    43    11    41 1
    44    14    42 1
    45    16    43 1
    46    21    44 1
    47    21    45 1
    48    23    46 1
    49    23    47 1
    50    24    48 1
    51    25    49 1
    52    25    50 1
    53    29    51 1
    54    29    52 1
    55    26    53 1
    56    26    54 1
    57    27    55 1
    58    27    56 1
    59    28    57 1
    60    28    58 1
@<TRIPOS>SUBSTRUCTURE
     1 SL6         1 TEMP              0 ****  ****    0 ROOT
