@<TRIPOS>MOLECULE
SL6
   58    60     1     0     0
SMALL
bcc


@<TRIPOS>ATOM
      1 Cl2          0.0000     0.0000     0.0000 cl         1 SL6      -0.061400
      2 C19          1.7360     0.0000     0.0000 ca         1 SL6      -0.034600
      3 C18          2.4290     0.0000     1.1980 ca         1 SL6      -0.098000
      4 C17          3.8100     0.0000     1.1970 ca         1 SL6      -0.088000
      5 C20          2.4280    -0.0060    -1.1990 ca         1 SL6      -0.098000
      6 C21          3.8090    -0.0060    -1.1980 ca         1 SL6      -0.088000
      7 C16          4.5010     0.0000    -0.0010 ca         1 SL6      -0.077300
      8 C15          6.0080    -0.0000    -0.0010 c3         1 SL6       0.023900
      9 C11          6.5190    -1.4430    -0.0050 c3         1 SL6      -0.151000
     10 C10          6.0970    -2.1380     1.2920 c3         1 SL6      -0.019400
     11 C9           6.7380    -1.4220     2.4810 c3         1 SL6       0.137800
     12 C14          5.9360    -2.1790    -1.1850 c          1 SL6       0.629300
     13 O27          5.1730    -3.1050    -1.0050 o          1 SL6      -0.587100
     14 C22          6.2790    -1.7890    -2.5020 ce         1 SL6      -0.406200
     15 C23          5.8410    -2.5170    -3.5600 cf         1 SL6       0.184900
     16 O28          5.0770    -3.6130    -3.3560 oh         1 SL6      -0.474100
     17 C24          6.2010    -2.1090    -4.9380 c          1 SL6       0.930800
     18 O26          5.7650    -2.8310    -5.9890 o          1 SL6      -0.865800
     19 O25          6.8870    -1.1250    -5.1210 o          1 SL6      -0.865800
     20 C12          8.0470    -1.4450    -0.1030 c3         1 SL6      -0.019400
     21 C13          8.6320    -0.7480     1.1270 c3         1 SL6       0.137800
     22 N8           8.2000    -1.4510     2.3420 n3         1 SL6      -0.536600
     23 C7           8.8540    -0.8950     3.5330 c3         1 SL6       0.153800
     24 C2          10.3590    -1.1680     3.4640 c3         1 SL6      -0.059700
     25 C3          11.0560    -0.4800     4.6400 c3         1 SL6      -0.022900
     26 C4          12.5600    -0.7530     4.5700 c3         1 SL6      -0.023900
     27 C5          12.8090    -2.2610     4.6390 c3         1 SL6      -0.025400
     28 C6          12.1120    -2.9470     3.4620 c3         1 SL6      -0.023900
     29 C1          10.6080    -2.6750     3.5320 c3         1 SL6      -0.022900
     30 H18          1.8880     0.0000     2.1360 ha         1 SL6       0.110000
     31 H20          1.8860    -0.0110    -2.1370 ha         1 SL6       0.110000
     32 H17          4.3530     0.0030     2.1350 ha         1 SL6       0.123000
     33 H21          4.3510    -0.0080    -2.1360 ha         1 SL6       0.123000
     34 H151         6.3700     0.5080     0.8840 hc         1 SL6       0.028700
     35 H152         6.3690     0.5130    -0.8850 hc         1 SL6       0.028700
     36 H101         6.4260    -3.1700     1.2710 hc         1 SL6       0.036950
     37 H102         5.0180    -2.0990     1.3870 hc         1 SL6       0.036950
     38 H121         8.4040    -2.4670    -0.1420 hc         1 SL6       0.036950
     39 H122         8.3520    -0.9150    -0.9970 hc         1 SL6       0.036950
     40 H91C         6.4550    -1.9230     3.3990 h1         1 SL6       0.008700
     41 H92C         6.4010    -0.3930     2.5070 h1         1 SL6       0.008700
     42 H22          6.8910    -0.9110    -2.6650 ha         1 SL6       0.146000
     43 H28          5.4910    -4.3620    -3.7520 ho         1 SL6       0.412000
     44 H131         9.7140    -0.7630     1.0690 h1         1 SL6       0.008700
     45 H132         8.2810     0.2770     1.1610 h1         1 SL6       0.008700
     46 H71C         8.6820     0.1740     3.5730 h1         1 SL6       0.005200
     47 H72C         8.4440    -1.3610     4.4210 h1         1 SL6       0.005200
     48 H2          10.7580    -0.7800     2.5340 hc         1 SL6       0.039700
     49 H31C        10.6620    -0.8710     5.5700 hc         1 SL6       0.018700
     50 H32C        10.8810     0.5880     4.5880 hc         1 SL6       0.018700
     51 H11C        10.2150    -3.0620     4.4640 hc         1 SL6       0.018700
     52 H12C        10.1150    -3.1590     2.6980 hc         1 SL6       0.018700
     53 H41C        13.0520    -0.2680     5.4050 hc         1 SL6       0.010700
     54 H42C        12.9540    -0.3650     3.6380 hc         1 SL6       0.010700
     55 H51C        12.4120    -2.6490     5.5690 hc         1 SL6       0.008200
     56 H52C        13.8740    -2.4530     4.5880 hc         1 SL6       0.008200
     57 H61C        12.2870    -4.0150     3.5130 hc         1 SL6       0.010700
     58 H62C        12.5050    -2.5550     2.5320 hc         1 SL6       0.010700
@<TRIPOS>BOND
     1     1     2 1   
     2     2     3 ar  
     3     2     5 ar  
     4     3     4 ar  
     5     3    30 1   
     6     4     7 ar  
     7     4    32 1   
     8     5     6 ar  
     9     5    31 1   
    10     6     7 ar  
    11     6    33 1   
    12     7     8 1   
    13     8     9 1   
    14     8    34 1   
    15     8    35 1   
    16     9    10 1   
    17     9    12 1   
    18     9    20 1   
    19    10    11 1   
    20    10    36 1   
    21    10    37 1   
    22    11    22 1   
    23    11    40 1   
    24    11    41 1   
    25    12    13 2   
    26    12    14 1   
    27    14    15 2   
    28    14    42 1   
    29    15    16 1   
    30    15    17 1   
    31    16    43 1   
    32    17    18 1   
    33    17    19 1   
    34    20    21 1   
    35    20    38 1   
    36    20    39 1   
    37    21    22 1   
    38    21    44 1   
    39    21    45 1   
    40    22    23 1   
    41    23    24 1   
    42    23    46 1   
    43    23    47 1   
    44    24    25 1   
    45    24    29 1   
    46    24    48 1   
    47    25    26 1   
    48    25    49 1   
    49    25    50 1   
    50    26    27 1   
    51    26    53 1   
    52    26    54 1   
    53    27    28 1   
    54    27    55 1   
    55    27    56 1   
    56    28    29 1   
    57    28    57 1   
    58    28    58 1   
    59    29    51 1   
    60    29    52 1   
@<TRIPOS>SUBSTRUCTURE
     1 SL6         1 TEMP              0 ****  ****    0 ROOT
