@<TRIPOS>MOLECULE
molecule
   32    32     1     0     0
SMALL
bcc


@<TRIPOS>ATOM
      1 C1           0.0000     0.0000     0.0000 c3         1 SLA       0.145100
      2 C2           1.5460     0.0000     0.0000 c3         1 SLA      -0.182700
      3 C3           1.9170     0.0000     1.4660 c          1 SLA       0.712500
      4 N4           0.8560    -0.3530     2.2110 ns         1 SLA      -0.572900
      5 C5          -0.3150    -0.6340     1.3720 c3         1 SLA      -0.025600
      6 C6          -1.5470    -0.0030     1.9680 c          1 SLA       0.580900
      7 O7          -2.0610     0.9470     1.4270 o          1 SLA      -0.485100
      8 O8          -0.5120     1.3320    -0.0790 oh         1 SLA      -0.559800
      9 C9           2.0820     1.2570    -0.6890 c3         1 SLA      -0.066100
     10 O10          3.0130     0.2790     1.9060 o          1 SLA      -0.621500
     11 C11         -0.5110    -2.1450     1.2260 c3         1 SLA       0.144100
     12 O12         -0.8800    -2.7020     2.4900 oh         1 SLA      -0.602800
     13 C13         -1.6170    -2.4190     0.2050 c3         1 SLA      -0.090700
     14 C14         -1.7090    -3.9240    -0.0550 c3         1 SLA      -0.095600
     15 C15         -2.9530    -1.9140     0.7540 c3         1 SLA      -0.095600
     16 H18         -1.9380    -0.3650     2.9110 h4         1 SLA       0.014200
     17 H1          -0.3830    -0.6160    -0.8040 h1         1 SLA       0.056700
     18 H2           1.9220    -0.8930    -0.4830 hc         1 SLA       0.077700
     19 H3           0.8630    -0.4170     3.2100 hn         1 SLA       0.343500
     20 H4          -0.8920     1.4730    -0.9300 ho         1 SLA       0.407000
     21 H5           3.1570     1.1810    -0.7920 hc         1 SLA       0.047367
     22 H6           1.6300     1.3510    -1.6690 hc         1 SLA       0.047367
     23 H7           1.8370     2.1270    -0.0930 hc         1 SLA       0.047367
     24 H8           0.4130    -2.5980     0.8880 h1         1 SLA       0.046700
     25 H9          -0.2030    -3.2870     2.7850 ho         1 SLA       0.411000
     26 H10         -1.3890    -1.9050    -0.7210 hc         1 SLA       0.054700
     27 H11         -2.3800    -4.1070    -0.8850 hc         1 SLA       0.044033
     28 H12         -0.7250    -4.3090    -0.2950 hc         1 SLA       0.044033
     29 H13         -2.0850    -4.4210     0.8310 hc         1 SLA       0.044033
     30 H14         -2.9190    -1.9050     1.8360 hc         1 SLA       0.044033
     31 H15         -3.7500    -2.5690     0.4230 hc         1 SLA       0.044033
     32 H16         -3.1370    -0.9100     0.3900 hc         1 SLA       0.044033
@<TRIPOS>BOND
     1    12    11 1
     2    10     3 2
     3     2     9 1
     4     2     3 1
     5     2     1 1
     6    14    13 1
     7     3     4 1
     8    11    13 1
     9    11     5 1
    10    15    13 1
    11     4     5 1
    12     1     5 1
    13     1     8 1
    14     5     6 1
    15     6     7 2
    16     6    16 1
    17     1    17 1
    18     2    18 1
    19     4    19 1
    20     8    20 1
    21     9    21 1
    22     9    22 1
    23     9    23 1
    24    11    24 1
    25    12    25 1
    26    13    26 1
    27    14    27 1
    28    14    28 1
    29    14    29 1
    30    15    30 1
    31    15    31 1
    32    15    32 1
@<TRIPOS>SUBSTRUCTURE
     1 SLA         1 TEMP              0 ****  ****    0 ROOT
