@<TRIPOS>MOLECULE
SLA
   32    32     1     0     0
SMALL
bcc


@<TRIPOS>ATOM
      1 C1           0.0000     0.0000     0.0000 c3         1 SLA       0.186100
      2 C2           1.5460     0.0000     0.0000 c3         1 SLA      -0.164700
      3 C3           1.9170     0.0000     1.4660 c          1 SLA       0.629500
      4 N4           0.8560    -0.3530     2.2110 ns         1 SLA      -0.177900
      5 C5          -0.3150    -0.6340     1.3720 c3         1 SLA      -0.167600
      6 C6          -1.5470    -0.0030     1.9680 c          1 SLA       0.657900
      7 O7          -2.0610     0.9470     1.4270 o          1 SLA      -0.514100
      8 O8          -0.5120     1.3320    -0.0790 oh         1 SLA      -0.541800
      9 C9           2.0820     1.2570    -0.6890 c3         1 SLA       0.032900
     10 O10          3.0130     0.2790     1.9060 o          1 SLA      -0.660500
     11 C11         -0.5110    -2.1450     1.2260 c3         1 SLA       0.191100
     12 O12         -0.8800    -2.7020     2.4900 oh         1 SLA      -0.583800
     13 C13         -1.6170    -2.4190     0.2050 c3         1 SLA      -0.077700
     14 C14         -1.7090    -3.9240    -0.0550 c3         1 SLA      -0.011100
     15 C15         -2.9530    -1.9140     0.7540 c3         1 SLA      -0.011100
     16 H18         -1.9380    -0.3650     2.9110 h4         1 SLA      -0.020800
     17 H1          -0.3830    -0.6160    -0.8040 h1         1 SLA       0.028700
     18 H2           1.9220    -0.8930    -0.4830 hc         1 SLA       0.048700
     19 H3           0.8630    -0.4170     3.2100 hn         1 SLA       0.196500
     20 H4          -0.8920     1.4730    -0.9300 ho         1 SLA       0.392000
     21 H5           3.1570     1.1810    -0.7920 hc         1 SLA       0.012033
     22 H6           1.6300     1.3510    -1.6690 hc         1 SLA       0.012033
     23 H7           1.8370     2.1270    -0.0930 hc         1 SLA       0.012033
     24 H8           0.4130    -2.5980     0.8880 h1         1 SLA       0.013700
     25 H9          -0.2030    -3.2870     2.7850 ho         1 SLA       0.397000
     26 H10         -1.3890    -1.9050    -0.7210 hc         1 SLA       0.037700
     27 H11         -2.3800    -4.1070    -0.8850 hc         1 SLA       0.013700
     28 H12         -0.7250    -4.3090    -0.2950 hc         1 SLA       0.013700
     29 H13         -2.0850    -4.4210     0.8310 hc         1 SLA       0.013700
     30 H14         -2.9190    -1.9050     1.8360 hc         1 SLA       0.013700
     31 H15         -3.7500    -2.5690     0.4230 hc         1 SLA       0.013700
     32 H16         -3.1370    -0.9100     0.3900 hc         1 SLA       0.013700
@<TRIPOS>BOND
     1     1     2 1   
     2     1     5 1   
     3     1     8 1   
     4     1    17 1   
     5     2     3 1   
     6     2     9 1   
     7     2    18 1   
     8     3     4 1   
     9     3    10 2   
    10     4     5 1   
    11     4    19 1   
    12     5     6 1   
    13     5    11 1   
    14     6     7 2   
    15     6    16 1   
    16     8    20 1   
    17     9    21 1   
    18     9    22 1   
    19     9    23 1   
    20    11    12 1   
    21    11    13 1   
    22    11    24 1   
    23    12    25 1   
    24    13    14 1   
    25    13    15 1   
    26    13    26 1   
    27    14    27 1   
    28    14    28 1   
    29    14    29 1   
    30    15    30 1   
    31    15    31 1   
    32    15    32 1   
@<TRIPOS>SUBSTRUCTURE
     1 SLA         1 TEMP              0 ****  ****    0 ROOT
