@<TRIPOS>MOLECULE
molecule
   39    39     1     0     0
SMALL
bcc


@<TRIPOS>ATOM
      1 C1           1.5060     0.0000     0.0000 c          1 SLB       0.875600
      2 C2           0.0000     0.0000     0.0000 c3         1 SLB       0.226600
      3 C3          -0.5100     0.0000     1.4420 c3         1 SLB      -0.118400
      4 C4          -2.0420     0.0330     1.4300 c3         1 SLB       0.128100
      5 C5          -2.5510    -1.1190     0.5570 c3         1 SLB       0.088700
      6 C6          -1.8860    -1.0350    -0.8190 c3         1 SLB       0.129100
      7 C7          -2.4120    -2.1640    -1.7080 c3         1 SLB       0.163100
      8 C8          -1.7550    -2.0750    -3.0870 c3         1 SLB       0.132100
      9 C9          -2.2810    -3.2030    -3.9760 c3         1 SLB       0.102400
     10 C11         -6.3140    -1.5210     1.1330 c3         1 SLB      -0.174100
     11 N5          -4.0040    -1.0150     0.4070 ns         1 SLB      -0.581900
     12 O1A          2.1110    -0.9070    -0.5230 o          1 SLB      -0.815800
     13 O1B          2.1790     1.0050     0.5830 o          1 SLB      -0.815800
     14 O2          -0.4730     1.1700    -0.6710 oh         1 SLB      -0.657800
     15 O4          -2.5390    -0.1180     2.7610 oh         1 SLB      -0.599800
     16 O6          -0.4740    -1.1600    -0.6820 os         1 SLB      -0.348600
     17 O7          -2.1000    -3.4240    -1.1130 oh         1 SLB      -0.575800
     18 O8          -2.0670    -0.8150    -3.6820 oh         1 SLB      -0.610800
     19 O9          -1.6670    -3.1200    -5.2640 oh         1 SLB      -0.612800
     20 O10         -4.3480    -2.2590     2.2100 o          1 SLB      -0.591100
     21 H31         -0.1340     0.8750     1.9580 hc         1 SLB       0.072200
     22 H32         -0.1720    -0.8980     1.9450 hc         1 SLB       0.072200
     23 H4          -2.3800     0.9760     1.0160 h1         1 SLB       0.034700
     24 H5          -2.2970    -2.0630     1.0230 h1         1 SLB       0.112700
     25 H6          -2.1180    -0.0780    -1.2700 h1         1 SLB       0.078700
     26 H7          -3.4870    -2.0700    -1.8130 h1         1 SLB       0.028700
     27 H8          -0.6810    -2.1690    -2.9820 h1         1 SLB       0.095700
     28 H91         -3.3550    -3.1080    -4.0820 h1         1 SLB       0.021700
     29 H92         -2.0460    -4.1590    -3.5250 h1         1 SLB       0.021700
     30 H111        -6.5960    -0.4770     1.0630 hc         1 SLB       0.050367
     31 H112        -6.6200    -2.0390     0.2320 hc         1 SLB       0.050367
     32 H113        -6.8000    -1.9700     1.9910 hc         1 SLB       0.050367
     33 HN5         -4.3920    -0.4620    -0.3310 hn         1 SLB       0.302500
     34 HO2          0.2510     1.7480    -0.8440 ho         1 SLB       0.432000
     35 HO4         -2.4940     0.7100     3.2090 ho         1 SLB       0.387000
     36 HO7         -2.8360    -4.0070    -1.2060 ho         1 SLB       0.385000
     37 HO8         -1.4550    -0.6350    -4.3770 ho         1 SLB       0.418000
     38 HO9         -1.9120    -3.8710    -5.7790 ho         1 SLB       0.394000
     39 C10         -4.8190    -1.6280     1.2880 c          1 SLB       0.650100
@<TRIPOS>BOND
     1     1     2 1
     2     1    12 1
     3     1    13 1
     4     2     3 1
     5     2    14 1
     6     2    16 1
     7     3     4 1
     8     3    21 1
     9     3    22 1
    10     4     5 1
    11     4    15 1
    12     4    23 1
    13     5     6 1
    14     5    11 1
    15     5    24 1
    16     6     7 1
    17     6    16 1
    18     6    25 1
    19     7     8 1
    20     7    17 1
    21     7    26 1
    22     8     9 1
    23     8    18 1
    24     8    27 1
    25     9    19 1
    26     9    28 1
    27     9    29 1
    28    39    10 1
    29    39    11 1
    30    39    20 2
    31    10    30 1
    32    10    31 1
    33    10    32 1
    34    11    33 1
    35    14    34 1
    36    15    35 1
    37    17    36 1
    38    18    37 1
    39    19    38 1
@<TRIPOS>SUBSTRUCTURE
     1 SLB         1 TEMP              0 ****  ****    0 ROOT
