@<TRIPOS>MOLECULE
SLC
   26    26     1     0     0
SMALL
bcc


@<TRIPOS>ATOM
      1 C4           0.0000     0.0000     0.0000 c          1 SLC       0.627300
      2 O1           1.2160     0.0000     0.0000 o          1 SLC      -0.626100
      3 C2          -0.7360     0.0000     1.2740 ce         1 SLC      -0.207400
      4 C3          -0.0770     0.1200     2.4220 c2         1 SLC      -0.099000
      5 C1          -2.2370    -0.1360     1.2770 c3         1 SLC       0.217900
      6 SE          -2.9130     0.1250     3.0980 sh         1 SLC      -0.516900
      7 N           -0.6740    -0.0020    -1.1680 n          1 SLC      -0.111800
      8 C8          -0.0720     0.1230    -2.5030 c3         1 SLC      -0.080300
      9 C9           0.6340     1.4490    -2.6260 c          1 SLC       0.975600
     10 O3           0.6520     2.2120    -1.6900 o          1 SLC      -0.884300
     11 C7          -1.2210     0.0440    -3.5310 c3         1 SLC      -0.004400
     12 C6          -2.3410    -0.6880    -2.7460 c3         1 SLC      -0.048400
     13 C5          -2.1350    -0.1270    -1.3160 c3         1 SLC       0.004000
     14 O2           1.2440     1.7800    -3.7750 o          1 SLC      -0.884300
     15 H31C         1.0020     0.2180     2.4210 ha         1 SLC       0.106500
     16 H32C        -0.6200     0.1200     3.3600 ha         1 SLC       0.106500
     17 H11C        -2.6690     0.6100     0.6210 h1         1 SLC       0.048200
     18 H12C        -2.5110    -1.1250     0.9290 h1         1 SLC       0.048200
     19 HSE         -4.3410    -0.0840     3.1160 hs         1 SLC       0.197800
     20 H8           0.6250    -0.6890    -2.6690 h1         1 SLC       0.032700
     21 H71C        -0.9200    -0.5350    -4.3960 hc         1 SLC       0.025700
     22 H72C        -1.5440     1.0370    -3.8200 hc         1 SLC       0.025700
     23 H61C        -2.1880    -1.7610    -2.7650 hc         1 SLC       0.007200
     24 H62C        -3.3190    -0.4200    -3.1280 hc         1 SLC       0.007200
     25 H51C        -2.6070     0.8430    -1.2220 h1         1 SLC       0.017200
     26 H52C        -2.5290    -0.8190    -0.5810 h1         1 SLC       0.017200
@<TRIPOS>BOND
     1     1     2 2   
     2     1     3 1   
     3     1     7 1   
     4     3     4 2   
     5     3     5 1   
     6     4    15 1   
     7     4    16 1   
     8     5     6 1   
     9     5    17 1   
    10     5    18 1   
    11     6    19 1   
    12     7     8 1   
    13     7    13 1   
    14     8     9 1   
    15     8    11 1   
    16     8    20 1   
    17     9    10 1   
    18     9    14 1   
    19    11    12 1   
    20    11    21 1   
    21    11    22 1   
    22    12    13 1   
    23    12    23 1   
    24    12    24 1   
    25    13    25 1   
    26    13    26 1   
@<TRIPOS>SUBSTRUCTURE
     1 SLC         1 TEMP              0 ****  ****    0 ROOT
