@<TRIPOS>MOLECULE
SLD
   65    69     1     0     0
SMALL
bcc


@<TRIPOS>ATOM
      1 C1           0.0000     0.0000     0.0000 c2         1 SLD      -0.158000
      2 C2           1.3890     0.0000     0.0000 c2         1 SLD      -0.017000
      3 C3          -0.6930    -0.0000     1.1920 c2         1 SLD      -0.064000
      4 N1           2.0880     0.0000    -1.2110 n          1 SLD       0.067000
      5 C4           2.0880     0.0000     1.2020 c2         1 SLD      -0.172000
      6 C5           1.4840    -0.1400    -2.5450 c3         1 SLD      -0.117000
      7 C6           3.4140     0.1330    -1.3460 c2         1 SLD       0.342000
      8 C7           2.6910    -0.0740    -3.5020 c3         1 SLD       0.029000
      9 C8           2.8160    -1.3740    -4.2990 c3         1 SLD      -0.075000
     10 O1           3.8340     0.0990    -2.6150 os         1 SLD      -0.205000
     11 N2           3.9680    -1.2850    -5.2000 ns         1 SLD      -0.012000
     12 C9           4.2750    -2.3220    -6.0040 c2         1 SLD       0.218000
     13 C10          5.4600    -2.2310    -6.9310 c3         1 SLD      -0.133000
     14 O2           3.5970    -3.3270    -5.9830 o          1 SLD      -0.406000
     15 O3           4.1660     0.2710    -0.4020 o          1 SLD      -0.385000
     16 C11          1.4010     0.0000     2.4000 c2         1 SLD       0.102000
     17 C12          0.0030     0.0000     2.4020 c3         1 SLD      -0.131000
     18 F1           2.0790    -0.0000     3.5690 f          1 SLD      -0.080000
     19 C2B         -0.7360     0.0000     3.6810 c2         1 SLD      -0.098000
     20 C3B         -2.0630     0.0020     3.6810 c2         1 SLD      -0.237000
     21 C4B         -2.8170     0.0020     4.9850 DU         1 SLD      -0.090000
     22 C5B         -3.7870     1.1840     5.0130 c3         1 SLD      -0.115000
     23 CAS         -4.5530     1.1850     6.3380 c3         1 SLD      -0.073000
     24 N5S         -5.4820     2.3170     6.3640 ns         1 SLD       0.005000
     25 C0S         -6.2680     2.5190     7.4400 c2         1 SLD       0.222000
     26 C9S         -7.2240     3.6830     7.4680 c3         1 SLD      -0.172000
     27 O2S         -6.2050     1.7630     8.3880 o          1 SLD      -0.424000
     28 C8S         -7.9770     3.6840     8.7730 c2         1 SLD       0.092000
     29 C1S         -7.6460     6.1330     8.9710 c2         1 SLD       0.286000
     30 O1S         -7.2760     6.2490     7.8190 o          1 SLD      -0.387000
     31 N2S         -7.7310     7.2030     9.7910 ns         1 SLD       0.050000
     32 C3S         -8.1410     7.0700    11.0610 c2         1 SLD       0.234000
     33 O3S         -8.1980     8.0680    11.7540 o          1 SLD      -0.347000
     34 N4S         -8.4890     5.8990    11.6070 n2         1 SLD      -0.134000
     35 C5S         -8.4570     4.7750    10.9340 c2         1 SLD       0.081000
     36 C7S         -8.8580     3.4770    11.5860 c3         1 SLD      -0.083000
     37 C6S         -8.0280     4.8100     9.5260 c2         1 SLD      -0.283000
     38 H1          -0.5400    -0.0000    -0.9390 ha         1 SLD       0.114000
     39 H3          -1.7760    -0.0000     1.1900 ha         1 SLD       0.130000
     40 H4           3.1710     0.0000     1.1990 ha         1 SLD       0.186000
     41 H5           0.8930     0.7510    -2.7200 h1         1 SLD       0.090500
     42 H5A          1.0850    -1.1450    -2.6080 h1         1 SLD       0.090500
     43 H7           2.5980     0.7770    -4.1660 h1         1 SLD       0.086000
     44 H8           1.9140    -1.5300    -4.8790 h1         1 SLD       0.078000
     45 H8A          2.9540    -2.2040    -3.6160 h1         1 SLD       0.078000
     46 HN2          4.5200    -0.4510    -5.2260 hn         1 SLD       0.096000
     47 H10          6.3580    -2.0480    -6.3530 hc         1 SLD       0.063667
     48 H10A         5.5650    -3.1610    -7.4760 hc         1 SLD       0.063667
     49 H10B         5.3100    -1.4180    -7.6310 hc         1 SLD       0.063667
     50 H2B         -0.5890     0.8750     3.0590 DU         1 SLD       0.183000
     51 H3B         -2.2090    -0.8730     4.3030 DU         1 SLD       0.173000
     52 H4B         -3.3720    -0.9230     5.0810 ha         1 SLD       0.067000
     53 H4BA        -2.1170     0.0900     5.8070 ha         1 SLD       0.067000
     54 H5B         -4.4880     1.0960     4.1910 hc         1 SLD       0.063000
     55 H5BA        -3.2320     2.1100     4.9160 hc         1 SLD       0.063000
     56 HAS         -3.8520     1.2740     7.1600 h1         1 SLD       0.067500
     57 HASA        -5.1070     0.2590     6.4350 h1         1 SLD       0.067500
     58 HN5S        -5.5540     2.9230     5.5710 hn         1 SLD       0.092000
     59 H9S         -6.6690     4.6090     7.3710 hc         1 SLD       0.119500
     60 H9SA        -7.9240     3.5950     6.6470 hc         1 SLD       0.119500
     61 H8S         -8.2660     2.7370     9.2130 ha         1 SLD       0.127000
     62 HN2S        -7.4840     8.1090     9.4450 hn         1 SLD       0.118000
     63 H7S         -7.9880     2.8380    11.6820 hc         1 SLD       0.068667
     64 H7SA        -9.6040     2.9820    10.9760 hc         1 SLD       0.068667
     65 H7SB        -9.2690     3.6770    12.5680 hc         1 SLD       0.068667
@<TRIPOS>BOND
     1     1     2 1   
     2     1     3 1   
     3     1    38 1   
     4     2     4 1   
     5     2     5 1   
     6     3    17 1   
     7     3    39 1   
     8     4     6 1   
     9     4     7 1   
    10     5    16 1   
    11     5    40 1   
    12     6     8 1   
    13     6    41 1   
    14     6    42 1   
    15     7    10 1   
    16     7    15 1   
    17     8     9 1   
    18     8    10 1   
    19     8    43 1   
    20     9    11 1   
    21     9    44 1   
    22     9    45 1   
    23    11    12 1   
    24    11    46 1   
    25    12    13 1   
    26    12    14 1   
    27    13    47 1   
    28    13    48 1   
    29    13    49 1   
    30    16    17 1   
    31    16    18 1   
    32    17    19 1   
    33    17    50 1   
    34    19    20 1   
    35    19    50 1   
    36    20    21 1   
    37    20    51 1   
    38    21    22 1   
    39    21    51 1   
    40    21    52 1   
    41    21    53 1   
    42    22    23 1   
    43    22    54 1   
    44    22    55 1   
    45    23    24 1   
    46    23    56 1   
    47    23    57 1   
    48    24    25 1   
    49    24    58 1   
    50    25    26 1   
    51    25    27 1   
    52    26    28 1   
    53    26    59 1   
    54    26    60 1   
    55    28    37 1   
    56    28    61 1   
    57    29    30 1   
    58    29    31 1   
    59    29    37 1   
    60    31    32 1   
    61    31    62 1   
    62    32    33 1   
    63    32    34 1   
    64    34    35 1   
    65    35    36 1   
    66    35    37 1   
    67    36    63 1   
    68    36    64 1   
    69    36    65 1   
@<TRIPOS>SUBSTRUCTURE
     1 SLD         1 TEMP              0 ****  ****    0 ROOT
