@<TRIPOS>MOLECULE
molecule
   65    67     1     0     0
SMALL
bcc


@<TRIPOS>ATOM
      1 C1           0.0000     0.0000     0.0000 ca         1 SLD      -0.190000
      2 C2           1.3890     0.0000     0.0000 ca         1 SLD       0.119600
      3 C3          -0.6930    -0.0000     1.1920 ca         1 SLD      -0.075000
      4 N1           2.0880     0.0000    -1.2110 n          1 SLD      -0.413000
      5 C4           2.0880     0.0000     1.2020 ca         1 SLD      -0.199000
      6 C5           1.4840    -0.1400    -2.5450 c3         1 SLD       0.064000
      7 C6           3.4140     0.1330    -1.3460 c          1 SLD       0.832600
      8 C7           2.6910    -0.0740    -3.5020 c3         1 SLD       0.095100
      9 C8           2.8160    -1.3740    -4.2990 c3         1 SLD       0.107000
     10 O1           3.8340     0.0990    -2.6150 os         1 SLD      -0.370900
     11 N2           3.9680    -1.2850    -5.2000 ns         1 SLD      -0.588900
     12 C9           4.2750    -2.3220    -6.0040 c          1 SLD       0.659100
     13 C10          5.4600    -2.2310    -6.9310 c3         1 SLD      -0.169100
     14 O2           3.5970    -3.3270    -5.9830 o          1 SLD      -0.607100
     15 O3           4.1660     0.2710    -0.4020 o          1 SLD      -0.608500
     16 C11          1.4010     0.0000     2.4000 ca         1 SLD       0.171900
     17 C12          0.0030     0.0000     2.4020 ca         1 SLD      -0.118800
     18 F1           2.0790    -0.0000     3.5690 f          1 SLD      -0.129900
     19 C2B         -0.7360     0.0000     3.6810 ce         1 SLD      -0.105200
     20 C3B         -2.0630     0.0020     3.6810 c2         1 SLD      -0.174200
     21 C4B         -2.8170     0.0020     4.9850 c3         1 SLD      -0.041200
     22 C5B         -3.7870     1.1840     5.0130 c3         1 SLD      -0.098400
     23 CAS         -4.5530     1.1850     6.3380 c3         1 SLD       0.111000
     24 N5S         -5.4820     2.3170     6.3640 ns         1 SLD      -0.579900
     25 C0S         -6.2680     2.5190     7.4400 c          1 SLD       0.662100
     26 C9S         -7.2240     3.6830     7.4680 c3         1 SLD      -0.174200
     27 O2S         -6.2050     1.7630     8.3880 o          1 SLD      -0.621100
     28 C8S         -7.9770     3.6840     8.7730 c2         1 SLD       0.033800
     29 C1S         -7.6460     6.1330     8.9710 c          1 SLD       0.718700
     30 O1S         -7.2760     6.2490     7.8190 o          1 SLD      -0.626500
     31 N2S         -7.7310     7.2030     9.7910 ns         1 SLD      -0.587500
     32 C3S         -8.1410     7.0700    11.0610 c          1 SLD       0.839900
     33 O3S         -8.1980     8.0680    11.7540 o          1 SLD      -0.582500
     34 N4S         -8.4890     5.8990    11.6070 nc         1 SLD      -0.655100
     35 C5S         -8.4570     4.7750    10.9340 cd         1 SLD       0.574600
     36 C7S         -8.8580     3.4770    11.5860 c3         1 SLD      -0.141400
     37 C6S         -8.0280     4.8100     9.5260 cd         1 SLD      -0.363800
     38 H1          -0.5400    -0.0000    -0.9390 ha         1 SLD       0.133000
     39 H3          -1.7760    -0.0000     1.1900 ha         1 SLD       0.142000
     40 H4           3.1710     0.0000     1.1990 ha         1 SLD       0.200000
     41 H5           0.8930     0.7510    -2.7200 h1         1 SLD       0.082700
     42 H5A          1.0850    -1.1450    -2.6080 h1         1 SLD       0.082700
     43 H7           2.5980     0.7770    -4.1660 h1         1 SLD       0.085700
     44 H8           1.9140    -1.5290    -4.8790 h1         1 SLD       0.068700
     45 H8A          2.9540    -2.2040    -3.6160 h1         1 SLD       0.068700
     46 HN2          4.4980    -0.4380    -5.2510 hn         1 SLD       0.322500
     47 H10          6.3590    -2.0580    -6.3520 hc         1 SLD       0.063367
     48 H10A         5.3140    -1.4110    -7.6240 hc         1 SLD       0.063367
     49 H10B         5.5590    -3.1580    -7.4830 hc         1 SLD       0.063367
     50 H2B         -0.1950    -0.0010     4.6190 ha         1 SLD       0.144000
     51 H3B         -2.6040     0.0030     2.7420 ha         1 SLD       0.125000
     52 H4B         -3.3720    -0.9230     5.0810 hc         1 SLD       0.054700
     53 H4BA        -2.1170     0.0900     5.8070 hc         1 SLD       0.054700
     54 H5B         -3.2320     2.1100     4.9160 hc         1 SLD       0.048700
     55 H5BA        -4.4880     1.0960     4.1910 hc         1 SLD       0.048700
     56 HAS         -3.8520     1.2740     7.1600 h1         1 SLD       0.056200
     57 HASA        -5.1070     0.2590     6.4350 h1         1 SLD       0.056200
     58 HN5S        -5.5570     2.9210     5.5690 hn         1 SLD       0.318500
     59 H9S         -6.6690     4.6090     7.3710 hc         1 SLD       0.110200
     60 H9SA        -7.9240     3.5950     6.6470 hc         1 SLD       0.110200
     61 H8S         -8.2660     2.7370     9.2130 ha         1 SLD       0.162000
     62 HN2S        -7.4840     8.1090     9.4450 hn         1 SLD       0.352500
     63 H7S         -9.2690     3.6770    12.5680 hc         1 SLD       0.070700
     64 H7SA        -9.6040     2.9820    10.9760 hc         1 SLD       0.070700
     65 H7SB        -7.9880     2.8380    11.6830 hc         1 SLD       0.070700
@<TRIPOS>BOND
     1     1     2 ar
     2     1     3 ar
     3     2     4 1
     4     2     5 ar
     5     3    17 ar
     6     4     6 1
     7     4     7 1
     8     5    16 ar
     9     6     8 1
    10     7    10 1
    11     7    15 2
    12     8     9 1
    13     8    10 1
    14     9    11 1
    15    11    12 1
    16    12    13 1
    17    12    14 2
    18    16    17 ar
    19    16    18 1
    20    17    19 1
    21    19    20 2
    22    20    21 1
    23    21    22 1
    24    22    23 1
    25    23    24 1
    26    24    25 1
    27    25    26 1
    28    25    27 2
    29    26    28 1
    30    28    37 2
    31    29    30 2
    32    29    31 1
    33    29    37 1
    34    31    32 1
    35    32    33 2
    36    32    34 1
    37    34    35 2
    38    35    36 1
    39    35    37 1
    40     1    38 1
    41     3    39 1
    42     5    40 1
    43     6    41 1
    44     6    42 1
    45     8    43 1
    46     9    44 1
    47     9    45 1
    48    11    46 1
    49    13    47 1
    50    13    48 1
    51    13    49 1
    52    19    50 1
    53    20    51 1
    54    21    52 1
    55    21    53 1
    56    22    54 1
    57    22    55 1
    58    23    56 1
    59    23    57 1
    60    24    58 1
    61    26    59 1
    62    26    60 1
    63    28    61 1
    64    31    62 1
    65    36    63 1
    66    36    64 1
    67    36    65 1
@<TRIPOS>SUBSTRUCTURE
     1 SLD         1 TEMP              0 ****  ****    0 ROOT
