@<TRIPOS>MOLECULE
molecule
   23    22     1     0     0
SMALL
bcc


@<TRIPOS>ATOM
      1 C1           0.0000     0.0000     0.0000 c          1 SLE       0.894600
      2 O1          -0.6040    -1.0380     0.1240 o          1 SLE      -0.839800
      3 O2          -0.6710     1.1540    -0.1380 o          1 SLE      -0.839800
      4 C2           1.5070     0.0000     0.0000 c3         1 SLE      -0.164700
      5 CH           2.0170     0.0000     1.4410 c3         1 SLE       0.064700
      6 S            1.4120     1.4800     2.2970 sh         1 SLE      -0.364900
      7 C3           2.0170    -1.2470    -0.7220 c3         1 SLE      -0.051400
      8 C4           3.5380    -1.1710    -0.8610 c3         1 SLE      -0.087700
      9 CM           4.0600    -2.4710    -1.4760 c3         1 SLE      -0.085600
     10 C5           3.9080     0.0060    -1.7650 c3         1 SLE      -0.085600
     11 H2           1.8680     0.8850    -0.5100 hc         1 SLE       0.057700
     12 HH1          3.1000     0.0010     1.4400 h1         1 SLE       0.036200
     13 HH2          1.6570    -0.8850     1.9510 h1         1 SLE       0.036200
     14 HS           2.0490     1.6130     3.4550 hs         1 SLE       0.137800
     15 H31          1.5670    -1.3040    -1.7060 hc         1 SLE       0.049700
     16 H32          1.7500    -2.1290    -0.1520 hc         1 SLE       0.049700
     17 H4           3.9830    -1.0290     0.1160 hc         1 SLE       0.039700
     18 HM1          5.1420    -2.4360    -1.5300 hc         1 SLE       0.025700
     19 HM2          3.7560    -3.3090    -0.8610 hc         1 SLE       0.025700
     20 HM3          3.6530    -2.5880    -2.4730 hc         1 SLE       0.025700
     21 H51          3.9310     0.9170    -1.1800 hc         1 SLE       0.025700
     22 H52          3.1720     0.1010    -2.5540 hc         1 SLE       0.025700
     23 H53          4.8840    -0.1680    -2.2020 hc         1 SLE       0.025700
@<TRIPOS>BOND
     1     1     2 1
     2     1     3 1
     3     1     4 1
     4     4     5 1
     5     4     7 1
     6     4    11 1
     7     5     6 1
     8     5    12 1
     9     5    13 1
    10     6    14 1
    11     7     8 1
    12     7    15 1
    13     7    16 1
    14     8     9 1
    15     8    10 1
    16     8    17 1
    17     9    18 1
    18     9    19 1
    19     9    20 1
    20    10    21 1
    21    10    22 1
    22    10    23 1
@<TRIPOS>SUBSTRUCTURE
     1 SLE         1 TEMP              0 ****  ****    0 ROOT
