@<TRIPOS>MOLECULE
SLE
   23    22     1     0     0
SMALL
bcc


@<TRIPOS>ATOM
      1 C1          0.1070    0.1540    0.1940 c         1 SLE      0.912600
      2 O1         -0.5780    0.3430    1.2410 o         1 SLE     -0.844300
      3 O2         -0.3740    0.1960   -0.9730 o         1 SLE     -0.844300
      4 C2          1.6330   -0.1020    0.3470 c3        1 SLE     -0.197700
      5 CH          1.9810   -0.6110    1.7260 c3        1 SLE      0.083700
      6 S           2.0310    0.6660    2.9710 sh        1 SLE     -0.546900
      7 C3          2.1090   -1.0770   -0.7170 c3        1 SLE     -0.063400
      8 C4          3.5940   -0.9460   -1.0360 c3        1 SLE     -0.071700
      9 CM          4.1120   -2.2240   -1.6650 c3        1 SLE     -0.083100
     10 C5          3.8530    0.2270   -1.9590 c3        1 SLE     -0.083100
     11 H2          2.1290    0.8930    0.1830 hc        1 SLE      0.051700
     12 HH1         1.2310   -1.3770    2.0380 h1        1 SLE      0.050200
     13 HH2         3.0020   -1.0620    1.7490 h1        1 SLE      0.050200
     14 HS          0.7860    1.1470    2.7870 hs        1 SLE      0.303800
     15 H31         1.8960   -2.1240   -0.3770 hc        1 SLE      0.051700
     16 H32         1.5090   -0.8990   -1.6510 hc        1 SLE      0.051700
     17 H4          4.1570   -0.7710   -0.0760 hc        1 SLE      0.038700
     18 HM1         4.0060   -3.0790   -0.9550 hc        1 SLE      0.023867
     19 HM2         3.5380   -2.4630   -2.5920 hc        1 SLE      0.023867
     20 HM3         5.1910   -2.1190   -1.9340 hc        1 SLE      0.023867
     21 H51         3.4580    1.1690   -1.5070 hc        1 SLE      0.023867
     22 H52         4.9480    0.3470   -2.1410 hc        1 SLE      0.023867
     23 H53         3.3450    0.0710   -2.9410 hc        1 SLE      0.023867
@<TRIPOS>BOND
     1    1    2 1   
     2    1    3 1   
     3    1    4 1   
     4    4    5 1   
     5    4    7 1   
     6    4   11 1   
     7    5    6 1   
     8    5   12 1   
     9    5   13 1   
    10    6   14 1   
    11    7    8 1   
    12    7   15 1   
    13    7   16 1   
    14    8    9 1   
    15    8   10 1   
    16    8   17 1   
    17    9   18 1   
    18    9   19 1   
    19    9   20 1   
    20   10   21 1   
    21   10   22 1   
    22   10   23 1   
@<TRIPOS>SUBSTRUCTURE
     1 SLE         1 TEMP              0 ****  ****    0 ROOT
