@<TRIPOS>MOLECULE
SLH
   67    70     1     0     0
SMALL
bcc


@<TRIPOS>ATOM
      1 C1           0.0000     0.0000     0.0000 c3         1 SLH       0.024000
      2 C2           1.5330     0.0000     0.0000 c3         1 SLH      -0.060700
      3 C3           2.0340     0.0000     1.4460 c3         1 SLH      -0.019400
      4 N4          -3.2990    -3.8610    -1.0670 nu         1 SLH      -0.442600
      5 C5           4.0670     1.2690     0.7470 c3         1 SLH      -0.024400
      6 C6           3.5700     1.2680    -0.7000 c3         1 SLH      -0.021400
      7 C9           0.0200     1.2630    -2.1900 c3         1 SLH       0.025700
      8 C11         -2.4760     3.7990    -0.9550 c3         1 SLH      -0.015500
      9 C13         -3.9300     4.2020    -2.9230 cc         1 SLH      -0.460900
     10 C14         -3.7410     5.3610    -3.5830 cd         1 SLH       0.332200
     11 C15         -4.0710     3.8390    -5.0770 cc         1 SLH       0.215400
     12 C16         -2.4490     3.7270     0.5500 c          1 SLH       0.652900
     13 C12         -3.9170     4.0080    -1.4290 c3         1 SLH       0.097900
     14 N3          -4.1430     3.2370    -3.8700 na         1 SLH       0.260100
     15 N2          -3.8360     5.1100    -4.8980 nd         1 SLH      -0.620000
     16 N1          -1.9520     2.5470    -1.5150 n7         1 SLH      -0.566200
     17 C10         -0.4870     2.5820    -1.6030 c3         1 SLH       0.111800
     18 C8           1.5520     1.2460    -2.1680 c3         1 SLH      -0.035400
     19 C7           2.0400     1.2540    -0.7170 c3         1 SLH      -0.055700
     20 C4           3.5630     0.0120     1.4580 c3         1 SLH      -0.023400
     21 N           -0.4750     0.1380    -1.3840 n          1 SLH      -0.116800
     22 C           -1.3470    -0.7480    -1.9030 c          1 SLH       0.601100
     23 O           -1.7300    -0.6230    -3.0470 o          1 SLH      -0.674100
     24 C17         -1.8450    -1.8950    -1.0630 c3         1 SLH      -0.114400
     25 C18         -2.8150    -2.7460    -1.8840 c3         1 SLH       0.178800
     26 C19         -4.2030    -4.7810    -1.6060 ca         1 SLH       0.070600
     27 C24         -4.6630    -5.8390    -0.8320 ca         1 SLH      -0.191000
     28 C23         -5.5570    -6.7450    -1.3680 ca         1 SLH      -0.050500
     29 C22         -5.9930    -6.6020    -2.6720 ca         1 SLH      -0.167000
     30 C21         -5.5370    -5.5490    -3.4450 ca         1 SLH      -0.050500
     31 C20         -4.6480    -4.6350    -2.9140 ca         1 SLH      -0.191000
     32 H1          -0.3620    -0.9330     0.4150 h1         1 SLH       0.041200
     33 H2          -0.3620     0.8320     0.5920 h1         1 SLH       0.041200
     34 H3           1.8960    -0.8830    -0.5110 hc         1 SLH       0.035700
     35 H4           1.6770    -0.8900     1.9500 hc         1 SLH       0.017200
     36 H5           1.6630     0.8820     1.9550 hc         1 SLH       0.017200
     37 H6          -2.9670    -3.9760    -0.1300 hn         1 SLH       0.289800
     38 H7           5.1500     1.2780     0.7550 hc         1 SLH       0.014700
     39 H8           3.6890     2.1470     1.2570 hc         1 SLH       0.014700
     40 H9           3.9430     0.3870    -1.2080 hc         1 SLH       0.016700
     41 H10          3.9260     2.1590    -1.2030 hc         1 SLH       0.016700
     42 H11         -0.3280     1.1560    -3.2100 h1         1 SLH       0.066700
     43 H12         -1.8630     4.6280    -1.2880 h1         1 SLH       0.038700
     44 H13         -3.5510     6.3270    -3.1310 h4         1 SLH       0.003100
     45 H14         -4.1960     3.3490    -6.0350 h5         1 SLH       0.026100
     46 H15         -2.7680     4.5790     1.1390 h4         1 SLH      -0.038800
     47 H16         -4.3320     4.8840    -0.9460 hc         1 SLH       0.027200
     48 H17         -4.5100     3.1390    -1.1720 hc         1 SLH       0.027200
     49 H18         -4.3150     2.2650    -3.7000 hn         1 SLH       0.132700
     50 H20         -2.3380     2.4010    -2.4270 hn         1 SLH       0.259800
     51 H22         -0.1830     3.4020    -2.2430 h1         1 SLH       0.023700
     52 H23         -0.0680     2.7220    -0.6140 h1         1 SLH       0.023700
     53 H24          1.9090     0.3510    -2.6630 hc         1 SLH       0.026700
     54 H25          1.9290     2.1240    -2.6790 hc         1 SLH       0.026700
     55 H26          1.6640     2.1360    -0.2130 hc         1 SLH       0.040700
     56 H27          3.9150     0.0120     2.4830 hc         1 SLH       0.014700
     57 H28          3.9350    -0.8660     0.9430 hc         1 SLH       0.014700
     58 H29         -2.3540    -1.5080    -0.1890 hc         1 SLH       0.036700
     59 H30         -1.0060    -2.5050    -0.7510 hc         1 SLH       0.036700
     60 H31         -3.6550    -2.1360    -2.1960 h1         1 SLH       0.028200
     61 H32         -2.3060    -3.1320    -2.7590 h1         1 SLH       0.028200
     62 H33         -4.3220    -5.9530     0.1900 ha         1 SLH       0.112000
     63 H34         -5.9160    -7.5710    -0.7650 ha         1 SLH       0.096000
     64 H35         -6.6930    -7.3160    -3.0900 ha         1 SLH       0.102000
     65 H36         -5.8820    -5.4370    -4.4650 ha         1 SLH       0.096000
     66 H37         -4.2910    -3.8110    -3.5190 ha         1 SLH       0.112000
     67 O1          -2.0350     2.7350     1.1000 o          1 SLH      -0.540100
@<TRIPOS>BOND
     1     1     2 1   
     2     1    21 1   
     3     1    32 1   
     4     1    33 1   
     5     2     3 1   
     6     2    19 1   
     7     2    34 1   
     8     3    20 1   
     9     3    35 1   
    10     3    36 1   
    11     4    25 1   
    12     4    26 1   
    13     4    37 1   
    14     5     6 1   
    15     5    20 1   
    16     5    38 1   
    17     5    39 1   
    18     6    19 1   
    19     6    40 1   
    20     6    41 1   
    21     7    17 1   
    22     7    18 1   
    23     7    21 1   
    24     7    42 1   
    25     8    12 1   
    26     8    13 1   
    27     8    16 1   
    28     8    43 1   
    29     9    10 2   
    30     9    13 1   
    31     9    14 1   
    32    10    15 1   
    33    10    44 1   
    34    11    14 1   
    35    11    15 2   
    36    11    45 1   
    37    12    46 1   
    38    12    67 2   
    39    13    47 1   
    40    13    48 1   
    41    14    49 1   
    42    16    17 1   
    43    16    50 1   
    44    17    51 1   
    45    17    52 1   
    46    18    19 1   
    47    18    53 1   
    48    18    54 1   
    49    19    55 1   
    50    20    56 1   
    51    20    57 1   
    52    21    22 1   
    53    22    23 2   
    54    22    24 1   
    55    24    25 1   
    56    24    58 1   
    57    24    59 1   
    58    25    60 1   
    59    25    61 1   
    60    26    27 ar  
    61    26    31 ar  
    62    27    28 ar  
    63    27    62 1   
    64    28    29 ar  
    65    28    63 1   
    66    29    30 ar  
    67    29    64 1   
    68    30    31 ar  
    69    30    65 1   
    70    31    66 1   
@<TRIPOS>SUBSTRUCTURE
     1 SLH         1 TEMP              0 ****  ****    0 ROOT
