@<TRIPOS>MOLECULE
molecule
   67    70     1     0     0
SMALL
bcc


@<TRIPOS>ATOM
      1 C1           0.0000     0.0000     0.0000 c3         1 SLH       0.099000
      2 C2           1.5330     0.0000     0.0000 c3         1 SLH      -0.083700
      3 C3           2.0340     0.0000     1.4460 c3         1 SLH      -0.075400
      4 N4          -3.2990    -3.8610    -1.0670 nu         1 SLH      -0.836600
      5 C5           4.0670     1.2690     0.7470 c3         1 SLH      -0.079400
      6 C6           3.5700     1.2680    -0.7000 c3         1 SLH      -0.076400
      7 C9           0.0200     1.2630    -2.1900 c3         1 SLH       0.118700
      8 C11         -2.4760     3.7990    -0.9550 c3         1 SLH       0.046500
      9 C13         -3.9300     4.2020    -2.9230 cc         1 SLH      -0.255900
     10 C14         -3.7410     5.3610    -3.5830 cc         1 SLH       0.321200
     11 C15         -4.0710     3.8390    -5.0770 cd         1 SLH       0.403400
     12 C16         -2.4490     3.7270     0.5500 c          1 SLH       0.568900
     13 C12         -3.9170     4.0080    -1.4290 c3         1 SLH       0.003900
     14 N3          -4.1430     3.2370    -3.8700 na         1 SLH      -0.292900
     15 N2          -3.8360     5.1100    -4.8980 nc         1 SLH      -0.697000
     16 N1          -1.9520     2.5470    -1.5150 n7         1 SLH      -0.797200
     17 C10         -0.4870     2.5820    -1.6030 c3         1 SLH       0.139800
     18 C8           1.5520     1.2460    -2.1680 c3         1 SLH      -0.089400
     19 C7           2.0400     1.2540    -0.7170 c3         1 SLH      -0.066700
     20 C4           3.5630     0.0120     1.4580 c3         1 SLH      -0.078400
     21 N           -0.4750     0.1380    -1.3840 n          1 SLH      -0.464800
     22 C           -1.3470    -0.7480    -1.9030 c          1 SLH       0.679100
     23 O           -1.7300    -0.6230    -3.0470 o          1 SLH      -0.635100
     24 C17         -1.8450    -1.8950    -1.0630 c3         1 SLH      -0.174400
     25 C18         -2.8150    -2.7460    -1.8840 c3         1 SLH       0.250800
     26 C19         -4.2030    -4.7810    -1.6060 ca         1 SLH       0.204600
     27 C24         -4.6630    -5.8390    -0.8320 ca         1 SLH      -0.208000
     28 C23         -5.5570    -6.7450    -1.3680 ca         1 SLH      -0.083500
     29 C22         -5.9930    -6.6020    -2.6720 ca         1 SLH      -0.187000
     30 C21         -5.5370    -5.5490    -3.4450 ca         1 SLH      -0.083500
     31 C20         -4.6480    -4.6350    -2.9140 ca         1 SLH      -0.208000
     32 H1          -0.3620    -0.9330     0.4150 h1         1 SLH       0.061700
     33 H2          -0.3620     0.8320     0.5920 h1         1 SLH       0.061700
     34 H3           1.8960    -0.8830    -0.5110 hc         1 SLH       0.057700
     35 H4           1.6770    -0.8900     1.9500 hc         1 SLH       0.044200
     36 H5           1.6630     0.8820     1.9550 hc         1 SLH       0.044200
     37 H6          -2.9670    -3.9760    -0.1300 hn         1 SLH       0.433800
     38 H7           5.1500     1.2780     0.7550 hc         1 SLH       0.042200
     39 H8           3.6890     2.1470     1.2570 hc         1 SLH       0.042200
     40 H9           3.9430     0.3870    -1.2080 hc         1 SLH       0.043200
     41 H10          3.9260     2.1590    -1.2030 hc         1 SLH       0.043200
     42 H11         -0.3280     1.1560    -3.2100 h1         1 SLH       0.088700
     43 H12         -1.8630     4.6280    -1.2880 h1         1 SLH       0.054700
     44 H13         -3.5510     6.3270    -3.1310 h4         1 SLH       0.040100
     45 H14         -4.1960     3.3490    -6.0350 h5         1 SLH       0.069100
     46 H15         -2.7680     4.5790     1.1390 h4         1 SLH      -0.004800
     47 H16         -4.3320     4.8840    -0.9460 hc         1 SLH       0.065700
     48 H17         -4.5100     3.1390    -1.1720 hc         1 SLH       0.065700
     49 H18         -4.3150     2.2650    -3.7000 hn         1 SLH       0.308700
     50 H20         -2.3380     2.4010    -2.4270 hn         1 SLH       0.363800
     51 H22         -0.1830     3.4020    -2.2430 h1         1 SLH       0.042700
     52 H23         -0.0680     2.7220    -0.6140 h1         1 SLH       0.042700
     53 H24          1.9090     0.3510    -2.6630 hc         1 SLH       0.053700
     54 H25          1.9290     2.1240    -2.6790 hc         1 SLH       0.053700
     55 H26          1.6640     2.1360    -0.2130 hc         1 SLH       0.055700
     56 H27          3.9150     0.0120     2.4830 hc         1 SLH       0.042200
     57 H28          3.9350    -0.8660     0.9430 hc         1 SLH       0.042200
     58 H29         -2.3540    -1.5080    -0.1890 hc         1 SLH       0.067700
     59 H30         -1.0060    -2.5050    -0.7510 hc         1 SLH       0.067700
     60 H31         -3.6550    -2.1360    -2.1960 h1         1 SLH       0.053700
     61 H32         -2.3060    -3.1320    -2.7590 h1         1 SLH       0.053700
     62 H33         -4.3220    -5.9530     0.1900 ha         1 SLH       0.130000
     63 H34         -5.9160    -7.5710    -0.7650 ha         1 SLH       0.125500
     64 H35         -6.6930    -7.3160    -3.0900 ha         1 SLH       0.126000
     65 H36         -5.8820    -5.4370    -4.4650 ha         1 SLH       0.125500
     66 H37         -4.2910    -3.8110    -3.5190 ha         1 SLH       0.130000
     67 O1          -2.0350     2.7350     1.1000 o          1 SLH      -0.501100
@<TRIPOS>BOND
     1    29    30 ar
     2    29    28 ar
     3    30    31 ar
     4    28    27 ar
     5    31    26 ar
     6    27    26 ar
     7    26     4 1
     8     4    25 1
     9    25    24 1
    10    15    10 1
    11    15    11 2
    12    10     9 2
    13    23    22 2
    14    24    22 1
    15    11    14 1
    16    22    21 1
    17    67    12 2
    18     9    14 1
    19     9    13 1
    20     8    12 1
    21     8    16 1
    22     8    13 1
    23    16    17 1
    24    21     7 1
    25    21     1 1
    26    17     7 1
    27     7    18 1
    28     1     2 1
    29    18    19 1
    30     2    19 1
    31     2     3 1
    32    19     6 1
    33     3    20 1
    34     6     5 1
    35    20     5 1
    36     1    32 1
    37     1    33 1
    38     2    34 1
    39     3    35 1
    40     3    36 1
    41     4    37 1
    42     5    38 1
    43     5    39 1
    44     6    40 1
    45     6    41 1
    46     7    42 1
    47     8    43 1
    48    10    44 1
    49    11    45 1
    50    12    46 1
    51    13    47 1
    52    13    48 1
    53    14    49 1
    54    16    50 1
    55    17    51 1
    56    17    52 1
    57    18    53 1
    58    18    54 1
    59    19    55 1
    60    20    56 1
    61    20    57 1
    62    24    58 1
    63    24    59 1
    64    25    60 1
    65    25    61 1
    66    27    62 1
    67    28    63 1
    68    29    64 1
    69    30    65 1
    70    31    66 1
@<TRIPOS>SUBSTRUCTURE
     1 SLH         1 TEMP              0 ****  ****    0 ROOT
