@<TRIPOS>MOLECULE
molecule
   27    28     1     0     0
SMALL
bcc


@<TRIPOS>ATOM
      1 N            0.0000     0.0000     0.0000 ns         1 SLI      -0.480100
      2 C1           3.4870    -0.1180    -1.2760 ca         1 SLI       0.182100
      3 O1           4.1730    -0.0080    -0.1110 oh         1 SLI      -0.477100
      4 C2           2.0860    -0.1180    -1.2720 ca         1 SLI      -0.173600
      5 O2           1.9560     0.0980     1.0490 o          1 SLI      -0.567100
      6 C3           1.3920    -0.2300    -2.4790 ca         1 SLI      -0.083000
      7 C4           2.0870    -0.3420    -3.6640 ca         1 SLI      -0.159000
      8 C5           3.4720    -0.3410    -3.6640 ca         1 SLI      -0.078000
      9 C6           4.1700    -0.2240    -2.4780 ca         1 SLI      -0.203000
     10 C7           1.3480     0.0000     0.0000 c          1 SLI       0.673700
     11 C8          -0.6990     0.0000     1.2100 ca         1 SLI       0.059600
     12 C9          -1.9190     0.6580     1.3100 ca         1 SLI      -0.146500
     13 C10         -2.6070     0.6570     2.5080 ca         1 SLI      -0.111500
     14 C11         -2.0830     0.0000     3.6070 ca         1 SLI      -0.147000
     15 C12         -0.8690    -0.6560     3.5110 ca         1 SLI      -0.111500
     16 C13         -0.1780    -0.6620     2.3150 ca         1 SLI      -0.146500
     17 HN          -0.5000     0.0050    -0.8670 hn         1 SLI       0.321500
     18 HO1          4.8060     0.6860    -0.1830 ho         1 SLI       0.423000
     19 H3           0.3090    -0.2310    -2.4830 ha         1 SLI       0.129000
     20 H4           1.5480    -0.4310    -4.5990 ha         1 SLI       0.136000
     21 H5           4.0110    -0.4260    -4.6000 ha         1 SLI       0.136000
     22 H6           5.2540    -0.2250    -2.4870 ha         1 SLI       0.142000
     23 H9          -2.3290     1.1730     0.4500 ha         1 SLI       0.144000
     24 H10         -3.5580     1.1700     2.5860 ha         1 SLI       0.131000
     25 H11         -2.6230     0.0020     4.5460 ha         1 SLI       0.128000
     26 H12         -0.4620    -1.1700     4.3740 ha         1 SLI       0.131000
     27 H13          0.7720    -1.1760     2.2400 ha         1 SLI       0.144000
@<TRIPOS>BOND
     1     1    10 1
     2     1    11 1
     3     2     3 1
     4     2     4 ar
     5     2     9 ar
     6     4     6 ar
     7     4    10 1
     8     5    10 2
     9     6     7 ar
    10     7     8 ar
    11     8     9 ar
    12    11    12 ar
    13    11    16 ar
    14    12    13 ar
    15    13    14 ar
    16    14    15 ar
    17    15    16 ar
    18     1    17 1
    19     3    18 1
    20     6    19 1
    21     7    20 1
    22     8    21 1
    23     9    22 1
    24    12    23 1
    25    13    24 1
    26    14    25 1
    27    15    26 1
    28    16    27 1
@<TRIPOS>SUBSTRUCTURE
     1 SLI         1 TEMP              0 ****  ****    0 ROOT
