@<TRIPOS>MOLECULE
molecule
   42    42     1     0     0
SMALL
bcc


@<TRIPOS>ATOM
      1 C1           1.5070     0.0000     0.0000 c          1 SLM       0.446100
      2 C2           0.0000     0.0000     0.0000 c3         1 SLM       0.289600
      3 C3          -0.5110     0.0000     1.4430 c3         1 SLM      -0.138400
      4 C4          -2.0410    -0.0600     1.4350 c3         1 SLM       0.076100
      5 C5          -2.4880    -1.3030     0.6600 c3         1 SLM       0.014700
      6 C6          -1.9020    -1.2520    -0.7530 c3         1 SLM       0.128100
      7 C7          -2.2940    -2.5200    -1.5140 c3         1 SLM       0.111100
      8 C8          -1.6060    -2.5270    -2.8800 c3         1 SLM       0.115100
      9 C9          -1.9980    -3.7960    -3.6420 c3         1 SLM       0.122400
     10 C11         -6.1740    -1.8900     1.5110 c3         1 SLM      -0.158100
     11 N5          -3.9520    -1.3310     0.5820 ns         1 SLM      -0.554900
     12 O1A          2.1120    -0.8610    -0.6030 o          1 SLM      -0.348100
     13 O2          -0.4760     1.1680    -0.6740 oh         1 SLM      -0.581800
     14 O4          -2.5230    -0.1340     2.7790 oh         1 SLM      -0.531800
     15 O6          -0.4770    -1.1660    -0.6730 os         1 SLM      -0.409600
     16 O7          -1.8870    -3.6690    -0.7690 oh         1 SLM      -0.535800
     17 O8          -2.0150    -1.3790    -3.6260 oh         1 SLM      -0.595800
     18 O9          -1.2680    -3.8610    -4.8680 oh         1 SLM      -0.616800
     19 N1           2.1810     0.9580     0.6650 nz         1 SLM      -0.683400
     20 O10         -4.1030    -2.3580     2.5420 o          1 SLM      -0.595100
     21 H11N         1.6170     1.7820     0.7260 hn         1 SLM       0.485133
     22 H12N         3.0290     1.1690     0.1760 hn         1 SLM       0.485133
     23 H31C        -0.1190    -0.8650     1.9640 hc         1 SLM       0.070200
     24 H32C        -0.1870     0.9070     1.9400 hc         1 SLM       0.070200
     25 H2           0.1020     1.3760    -1.3880 ho         1 SLM       0.423000
     26 H4          -2.4340     0.8270     0.9530 h1         1 SLM       0.085700
     27 H5          -2.0180    -2.0070     1.3350 h1         1 SLM       0.102700
     28 HA          -2.3330    -1.0530     2.6890 ho         1 SLM       0.418000
     29 H6          -2.2850    -0.3810    -1.2700 h1         1 SLM       0.086700
     30 HB          -4.0780    -0.5870    -0.0750 hn         1 SLM       0.324500
     31 H7          -3.3690    -2.5400    -1.6510 h1         1 SLM       0.110700
     32 H8          -0.6010    -2.5030    -2.4790 h1         1 SLM       0.046700
     33 HC          -1.0520    -3.4800    -1.1650 ho         1 SLM       0.398000
     34 H91C        -3.0600    -3.7750    -3.8560 h1         1 SLM       0.046700
     35 H92C        -1.7690    -4.6650    -3.0380 h1         1 SLM       0.046700
     36 HD          -1.3710    -1.1900    -4.2890 ho         1 SLM       0.428000
     37 H9          -1.5000    -4.6500    -5.3300 ho         1 SLM       0.423000
     38 H111        -6.5240    -1.0130     0.9820 hc         1 SLM       0.072033
     39 H112        -6.5720    -1.8880     2.5190 hc         1 SLM       0.072033
     40 H113        -6.5070    -2.7820     0.9930 hc         1 SLM       0.072033
     41 C10         -4.6700    -1.8610     1.5910 c          1 SLM       0.693100
     42 H13          2.4000     0.6330     1.5860 hn         1 SLM       0.485133
@<TRIPOS>BOND
     1     1     2 1
     2     1    12 2
     3     1    19 1
     4     2     3 1
     5     2    13 1
     6     2    15 1
     7     3     4 1
     8     4     5 1
     9     4    14 1
    10     5     6 1
    11     5    11 1
    12     6     7 1
    13     6    15 1
    14     7     8 1
    15     7    16 1
    16     8     9 1
    17     8    17 1
    18     9    18 1
    19    41    10 1
    20    41    11 1
    21    41    20 2
    22    19    21 1
    23    19    22 1
    24     3    23 1
    25     3    24 1
    26    13    25 1
    27     4    26 1
    28     5    27 1
    29    14    28 1
    30     6    29 1
    31    11    30 1
    32     7    31 1
    33     8    32 1
    34    16    33 1
    35     9    34 1
    36     9    35 1
    37    17    36 1
    38    18    37 1
    39    10    38 1
    40    10    39 1
    41    10    40 1
    42    42    19 1
@<TRIPOS>SUBSTRUCTURE
     1 SLM         1 TEMP              0 ****  ****    0 ROOT
