@<TRIPOS>MOLECULE
SLO
   42    44     1     0     0
SMALL
bcc


@<TRIPOS>ATOM
      1 F          -0.1180    0.0350    0.6780 f         1 SLO     -0.152900
      2 S           3.7520   -1.0350   -8.0750 sy        1 SLO      1.403300
      3 C1          4.8530    0.0520    0.9550 cc        1 SLO      0.036600
      4 O1          4.6860    2.2090    3.4120 o         1 SLO     -0.823800
      5 C2          5.0800   -0.0510   -1.3790 cd        1 SLO      0.061800
      6 O2          6.7990    1.7200    2.8490 o         1 SLO     -0.823800
      7 C3          5.7710    0.0570   -0.0680 cd        1 SLO     -0.146200
      8 O3          2.5310   -1.7320   -8.0880 o         1 SLO     -0.667300
      9 C4          3.5000    0.0060    0.3620 ca        1 SLO     -0.013800
     10 O4          3.8180    0.1390   -8.8460 o         1 SLO     -0.667300
     11 C5          3.6360   -0.0640   -1.0670 ca        1 SLO     -0.107800
     12 C6          5.1040    0.0630    2.3940 c3        1 SLO     -0.188200
     13 C7          5.7220   -0.1100   -2.5570 ce        1 SLO     -0.174200
     14 C8          2.2580    0.0470    0.9580 ca        1 SLO     -0.134000
     15 C9          2.5140   -0.0800   -1.8690 ca        1 SLO     -0.086000
     16 C10         7.2260    0.1630    0.0710 c3        1 SLO     -0.055900
     17 C11         5.1700   -0.3090   -3.8820 ca        1 SLO      0.057200
     18 C12         1.1170    0.0090    0.1180 ca        1 SLO      0.123900
     19 C13         1.2430   -0.0520   -1.2760 ca        1 SLO     -0.193000
     20 C14         5.5660    0.5400   -4.9310 ca        1 SLO     -0.161500
     21 C15         4.3070   -1.3790   -4.1710 ca        1 SLO     -0.161500
     22 C16         4.2720   -0.7640   -6.5250 ca        1 SLO     -0.426500
     23 C17         5.5670    1.4590    2.9180 c         1 SLO      0.928600
     24 C18         5.1160    0.3170   -6.2240 ca        1 SLO     -0.016500
     25 C19         3.8690   -1.5970   -5.4700 ca        1 SLO     -0.016500
     26 C20         4.9700   -2.0920   -8.6150 c3        1 SLO     -0.347300
     27 H6          5.9210   -0.6650    2.6410 hc        1 SLO      0.045700
     28 H6A         4.1800   -0.2260    2.9570 hc        1 SLO      0.045700
     29 H7          6.8250    0.0030   -2.5520 ha        1 SLO      0.143000
     30 H8          2.1450    0.1350    2.0490 ha        1 SLO      0.172000
     31 H9          2.5950   -0.1030   -2.9660 ha        1 SLO      0.135000
     32 H10         7.4800    0.5430    1.1010 hc        1 SLO      0.053033
     33 H10A        7.7130   -0.8320   -0.0860 hc        1 SLO      0.053033
     34 H10B        7.6450    0.8790   -0.6790 hc        1 SLO      0.053033
     35 H13         0.3420   -0.0680   -1.9040 ha        1 SLO      0.136000
     36 H14         6.2310    1.3910   -4.7150 ha        1 SLO      0.151500
     37 H15         3.9820   -2.0450   -3.3560 ha        1 SLO      0.151500
     38 H18         5.4150    1.0030   -7.0360 ha        1 SLO      0.147000
     39 H19         3.1820   -2.4350   -5.6840 ha        1 SLO      0.147000
     40 H20         4.7790   -2.4190   -9.6670 h1        1 SLO      0.107367
     41 H20A        5.0390   -3.0220   -8.0010 h1        1 SLO      0.107367
     42 H20B        5.9830   -1.6250   -8.6060 h1        1 SLO      0.107367
@<TRIPOS>BOND
     1    1   18 1   
     2    2    8 2   
     3    2   10 2   
     4    2   22 1   
     5    2   26 1   
     6    3    7 2   
     7    3    9 1   
     8    3   12 1   
     9    4   23 1   
    10    5    7 1   
    11    5   11 1   
    12    5   13 2   
    13    6   23 1   
    14    7   16 1   
    15    9   11 ar  
    16    9   14 ar  
    17   11   15 ar  
    18   12   23 1   
    19   12   27 1   
    20   12   28 1   
    21   13   17 1   
    22   13   29 1   
    23   14   18 ar  
    24   14   30 1   
    25   15   19 ar  
    26   15   31 1   
    27   16   32 1   
    28   16   33 1   
    29   16   34 1   
    30   17   20 ar  
    31   17   21 ar  
    32   18   19 ar  
    33   19   35 1   
    34   20   24 ar  
    35   20   36 1   
    36   21   25 ar  
    37   21   37 1   
    38   22   24 ar  
    39   22   25 ar  
    40   24   38 1   
    41   25   39 1   
    42   26   40 1   
    43   26   41 1   
    44   26   42 1   
@<TRIPOS>SUBSTRUCTURE
     1 SLO         1 TEMP              0 ****  ****    0 ROOT
