@<TRIPOS>MOLECULE
molecule
   42    44     1     0     0
SMALL
bcc


@<TRIPOS>ATOM
      1 F            0.0000     0.0000     0.0000 f          1 SLO      -0.152900
      2 S            3.4080    -0.9680    -7.7830 sy         1 SLO       1.195300
      3 C1           4.9010     0.0000     0.8640 cc         1 SLO       0.045600
      4 O1           5.0430     1.6470     4.1990 o          1 SLO      -0.835800
      5 C2           5.4050    -0.0000    -1.3690 cd         1 SLO       0.055800
      6 O2           4.8080     2.3260     2.1090 o          1 SLO      -0.835800
      7 C3           5.9340     0.0000     0.0000 cd         1 SLO      -0.156200
      8 O3           2.1720    -1.5740    -7.4300 o          1 SLO      -0.625800
      9 C4           3.6350    -0.0010     0.1270 ca         1 SLO       0.004200
     10 O4           3.4450     0.2940    -8.4340 o          1 SLO      -0.625800
     11 C5           3.9310     0.0000    -1.2530 ca         1 SLO      -0.116800
     12 C6           5.0290    -0.0060     2.3650 c3         1 SLO      -0.151200
     13 C7           6.1310     0.0010    -2.5250 ce         1 SLO      -0.161200
     14 C8           2.3000    -0.0000     0.5390 ca         1 SLO      -0.135000
     15 C9           2.8990     0.0000    -2.1850 ca         1 SLO      -0.090000
     16 C10          7.3920     0.0010     0.3770 c3         1 SLO      -0.020900
     17 C11          5.4650    -0.2360    -3.8100 ca         1 SLO       0.027200
     18 C12          1.2890     0.0000    -0.4020 ca         1 SLO       0.128900
     19 C13          1.5870    -0.0000    -1.7580 ca         1 SLO      -0.187000
     20 C14          5.7690     0.5650    -4.9190 ca         1 SLO      -0.145000
     21 C15          4.5270    -1.2680    -3.9380 ca         1 SLO      -0.145000
     22 C16          4.2080    -0.6840    -6.2390 ca         1 SLO      -0.312500
     23 C17          4.9520     1.4070     2.8820 c          1 SLO       0.892600
     24 C18          5.1390     0.3350    -6.1230 ca         1 SLO      -0.039000
     25 C19          3.9060    -1.4830    -5.1500 ca         1 SLO      -0.039000
     26 C20          4.4800    -2.1560    -8.6360 c3         1 SLO      -0.231300
     27 H6           5.9810    -0.4420     2.6440 hc         1 SLO       0.046700
     28 H6A          4.2250    -0.5910     2.7930 hc         1 SLO       0.046700
     29 H7           7.2130     0.0040    -2.4770 ha         1 SLO       0.143000
     30 H8           2.0580     0.0610     1.5930 ha         1 SLO       0.161000
     31 H9           3.1250    -0.0000    -3.2450 ha         1 SLO       0.143000
     32 H10          7.9540     0.5720    -0.3530 hc         1 SLO       0.038700
     33 H10A         7.7610    -1.0180     0.3980 hc         1 SLO       0.038700
     34 H10B         7.5120     0.4490     1.3560 hc         1 SLO       0.038700
     35 H13          0.7850     0.0010    -2.4850 ha         1 SLO       0.135000
     36 H14          6.4960     1.3620    -4.8300 ha         1 SLO       0.148500
     37 H15          4.2890    -1.8950    -3.0870 ha         1 SLO       0.148500
     38 H18          5.3720     0.9540    -6.9810 ha         1 SLO       0.144000
     39 H19          3.1810    -2.2810    -5.2500 ha         1 SLO       0.144000
     40 H20          4.4610    -3.1030    -8.1100 h1         1 SLO       0.094033
     41 H20A         5.4940    -1.7770    -8.6590 h1         1 SLO       0.094033
     42 H20B         4.1260    -2.3000    -9.6500 h1         1 SLO       0.094033
@<TRIPOS>BOND
     1     1    18 1
     2     2     8 2
     3     2    10 2
     4     2    22 1
     5     2    26 1
     6     3     7 2
     7     3     9 1
     8     3    12 1
     9     4    23 1
    10     5     7 1
    11     5    11 1
    12     5    13 2
    13     6    23 1
    14     7    16 1
    15     9    11 ar
    16     9    14 ar
    17    11    15 ar
    18    12    23 1
    19    13    17 1
    20    14    18 ar
    21    15    19 ar
    22    17    20 ar
    23    17    21 ar
    24    18    19 ar
    25    20    24 ar
    26    21    25 ar
    27    22    24 ar
    28    22    25 ar
    29    12    27 1
    30    12    28 1
    31    13    29 1
    32    14    30 1
    33    15    31 1
    34    16    32 1
    35    16    33 1
    36    16    34 1
    37    19    35 1
    38    20    36 1
    39    21    37 1
    40    24    38 1
    41    25    39 1
    42    26    40 1
    43    26    41 1
    44    26    42 1
@<TRIPOS>SUBSTRUCTURE
     1 SLO         1 TEMP              0 ****  ****    0 ROOT
