@<TRIPOS>MOLECULE
SLP
   11    10     1     0     0
SMALL
bcc


@<TRIPOS>ATOM
      1 SE          0.1050    0.0000    0.0640 sh        1 SLP     -0.485900
      2 O1          4.5870    0.0050    0.3220 o         1 SLP     -0.845300
      3 C2          1.8970   -0.0010    0.0080 c3        1 SLP      0.080700
      4 O2          4.5290   -0.0020    2.5560 o         1 SLP     -0.845300
      5 C6          2.4220   -0.0000    1.4100 c3        1 SLP     -0.202400
      6 C7          3.9690    0.0010    1.4240 c         1 SLP      0.915600
      7 HSE        -0.1450    0.0000   -1.2300 hs        1 SLP      0.179800
      8 H2          2.2560    0.9020   -0.5400 h1        1 SLP      0.062700
      9 H2A         2.2550   -0.9030   -0.5400 h1        1 SLP      0.062700
     10 H6          2.0700    0.9040    1.9670 hc        1 SLP      0.038700
     11 H6A         2.0710   -0.9050    1.9660 hc        1 SLP      0.038700
@<TRIPOS>BOND
     1    1    3 1   
     2    1    7 1   
     3    2    6 1   
     4    3    5 1   
     5    3    8 1   
     6    3    9 1   
     7    4    6 1   
     8    5    6 1   
     9    5   10 1   
    10    5   11 1   
@<TRIPOS>SUBSTRUCTURE
     1 SLP         1 TEMP              0 ****  ****    0 ROOT
