@<TRIPOS>MOLECULE
molecule
   11    10     1     0     0
SMALL
bcc


@<TRIPOS>ATOM
      1 SE           0.0000     0.0000     0.0000 sh         1 SLP      -0.641900
      2 O1           4.5810    -0.0000     0.3960 o          1 SLP      -0.847800
      3 C2           1.9600     0.0000     0.0000 c3         1 SLP       0.170700
      4 O2           4.6490    -0.0000     2.6040 o          1 SLP      -0.847800
      5 C6           2.4700     0.0000     1.4420 c3         1 SLP      -0.183400
      6 C7           3.9770    -0.0000     1.4420 c          1 SLP       0.896600
      7 HSE         -0.4810     0.0000    -1.3610 hs         1 SLP       0.238800
      8 H2           2.3210     0.8840    -0.5110 h1         1 SLP       0.060700
      9 H2A          2.3210    -0.8840    -0.5110 h1         1 SLP       0.060700
     10 H6           2.1090    -0.8840     1.9530 hc         1 SLP       0.046700
     11 H6A          2.1090     0.8840     1.9530 hc         1 SLP       0.046700
@<TRIPOS>BOND
     1     1     3 1
     2     2     6 1
     3     3     5 1
     4     4     6 1
     5     5     6 1
     6     1     7 1
     7     3     8 1
     8     3     9 1
     9     5    10 1
    10     5    11 1
@<TRIPOS>SUBSTRUCTURE
     1 SLP         1 TEMP              0 ****  ****    0 ROOT
