@<TRIPOS>MOLECULE
molecule
   61    64     1     0     0
SMALL
bcc


@<TRIPOS>ATOM
      1 N1           0.0000     0.0000     0.0000 nb         1 SLQ      -0.892000
      2 O1           2.0550    -2.1800    -3.1160 oh         1 SLQ      -0.614800
      3 C2           1.3270     0.0000     0.0000 ca         1 SLQ       1.000900
      4 N2           1.9950     0.0000    -1.2140 nu         1 SLQ      -0.886900
      5 N3           2.0340     0.0000     1.1180 nb         1 SLQ      -0.863000
      6 C4           1.4270     0.0010     2.3010 ca         1 SLQ       0.516800
      7 C5           0.0230     0.0010     2.3500 ca         1 SLQ      -0.260200
      8 C6          -0.6860     0.0010     1.1370 ca         1 SLQ       0.818200
      9 N6          -2.0690     0.0010     1.1280 nu         1 SLQ      -0.891900
     10 N7          -0.3310    -0.0000     3.6600 nc         1 SLQ      -0.577100
     11 C8           0.7410     0.0000     4.3980 cd         1 SLQ       0.396700
     12 N9           1.8520     0.0000     3.6050 na         1 SLQ      -0.252000
     13 C1'         -4.2770     0.0020     0.1190 ca         1 SLQ      -0.111300
     14 C10          3.5020     1.2480     4.9090 c3         1 SLQ      -0.108100
     15 C11          3.5020    -1.2500     4.9090 c3         1 SLQ      -0.108100
     16 C12          1.2380     0.0000    -2.4680 c3         1 SLQ       0.260500
     17 C13          2.0940     0.6100    -3.5800 c3         1 SLQ      -0.095400
     18 C14          2.3600     2.0840    -3.2680 c3         1 SLQ      -0.093100
     19 C15          0.8660    -1.4370    -2.8390 c3         1 SLQ       0.118400
     20 C1B         -8.4650     0.0040     0.8510 cp         1 SLQ       0.481800
     21 N1B         -9.1120     1.1560     0.9670 nb         1 SLQ      -0.690000
     22 C2'         -4.9540     1.2020     0.2410 ca         1 SLQ      -0.117500
     23 C2B         -9.1480    -1.2060     0.9610 ca         1 SLQ      -0.242300
     24 C3'         -6.3150     1.2080     0.4770 ca         1 SLQ      -0.104000
     25 C3B        -10.5130    -1.1900     1.1930 ca         1 SLQ      -0.090000
     26 C4'         -7.0040     0.0030     0.5950 cp         1 SLQ      -0.139500
     27 C4B        -11.1500     0.0380     1.3080 ca         1 SLQ      -0.256300
     28 C5'         -6.3160    -1.2020     0.4720 ca         1 SLQ      -0.104000
     29 C5B        -10.4100     1.2000     1.1880 ca         1 SLQ       0.425200
     30 C6'         -4.9570    -1.1970     0.2350 ca         1 SLQ      -0.117500
     31 CA'         -2.7930     0.0010    -0.1460 c3         1 SLQ       0.285100
     32 HO1          1.8260    -3.0620    -3.3560 ho         1 SLQ       0.401000
     33 HN2          2.9960    -0.0230    -1.2330 hn         1 SLQ       0.462800
     34 HN6         -2.5760     0.0230     1.9910 hn         1 SLQ       0.469800
     35 H8           0.7490     0.0010     5.4810 h5         1 SLQ       0.073800
     36 H9           3.9070    -0.0010     3.2070 h1         1 SLQ       0.090700
     37 H10          4.5670     1.3520     5.0830 hc         1 SLQ       0.046200
     38 H10A         3.1300     2.1330     4.4060 hc         1 SLQ       0.046200
     39 H10B         2.9920     1.1300     5.8570 hc         1 SLQ       0.046200
     40 H11          2.9870    -1.1570     5.8580 hc         1 SLQ       0.046200
     41 H11A         3.1350    -2.1230     4.3830 hc         1 SLQ       0.046200
     42 H11B         4.5660    -1.3550     5.0840 hc         1 SLQ       0.046200
     43 H12          0.3350     0.5860    -2.3450 h1         1 SLQ       0.083700
     44 H13          3.0350     0.0780    -3.6440 hc         1 SLQ       0.055700
     45 H13A         1.5690     0.5290    -4.5250 hc         1 SLQ       0.055700
     46 H14          2.7170     2.5830    -4.1610 hc         1 SLQ       0.035700
     47 H14A         3.1090     2.1590    -2.4890 hc         1 SLQ       0.035700
     48 H14B         1.4430     2.5540    -2.9340 hc         1 SLQ       0.035700
     49 H15          0.3360    -1.8980    -2.0140 h1         1 SLQ       0.031200
     50 H15A         0.2310    -1.4310    -3.7170 h1         1 SLQ       0.031200
     51 H2'         -4.4170     2.1380     0.1490 ha         1 SLQ       0.138000
     52 H2B         -8.6190    -2.1470     0.8660 ha         1 SLQ       0.141000
     53 H3'         -6.8450     2.1480     0.5720 ha         1 SLQ       0.145500
     54 H3B        -11.0700    -2.1140     1.2830 ha         1 SLQ       0.138000
     55 H4B        -12.2170     0.0860     1.4890 ha         1 SLQ       0.138000
     56 H5'         -6.8470    -2.1420     0.5620 ha         1 SLQ       0.145500
     57 H5B        -10.9050     2.1600     1.2770 h4         1 SLQ       0.024100
     58 H6'         -4.4210    -2.1340     0.1390 ha         1 SLQ       0.138000
     59 HA'         -2.5270    -0.8830    -0.7130 h1         1 SLQ       0.055200
     60 HA'A        -2.5270     0.8860    -0.7120 h1         1 SLQ       0.055200
     61 C9           3.2440    -0.0010     4.0640 c3         1 SLQ       0.053000
@<TRIPOS>BOND
     1     1     3 ar
     2     1     8 ar
     3     2    19 1
     4     3     4 1
     5     3     5 ar
     6     4    16 1
     7     5     6 ar
     8     6     7 ar
     9     6    12 1
    10     7     8 ar
    11     7    10 1
    12     8     9 1
    13     9    31 1
    14    10    11 2
    15    11    12 1
    16    61    12 1
    17    61    14 1
    18    61    15 1
    19    13    22 ar
    20    13    30 ar
    21    13    31 1
    22    16    17 1
    23    16    19 1
    24    17    18 1
    25    20    21 ar
    26    20    23 ar
    27    20    26 1
    28    21    29 ar
    29    22    24 ar
    30    23    25 ar
    31    24    26 ar
    32    25    27 ar
    33    26    28 ar
    34    27    29 ar
    35    28    30 ar
    36     2    32 1
    37     4    33 1
    38     9    34 1
    39    11    35 1
    40    61    36 1
    41    14    37 1
    42    14    38 1
    43    14    39 1
    44    15    40 1
    45    15    41 1
    46    15    42 1
    47    16    43 1
    48    17    44 1
    49    17    45 1
    50    18    46 1
    51    18    47 1
    52    18    48 1
    53    19    49 1
    54    19    50 1
    55    22    51 1
    56    23    52 1
    57    24    53 1
    58    25    54 1
    59    27    55 1
    60    28    56 1
    61    29    57 1
    62    30    58 1
    63    31    59 1
    64    31    60 1
@<TRIPOS>SUBSTRUCTURE
     1 SLQ         1 TEMP              0 ****  ****    0 ROOT
