@<TRIPOS>MOLECULE
molecule
   58    63     1     0     0
SMALL
bcc


@<TRIPOS>ATOM
      1 O39          0.0000     0.0000     0.0000 o          1 SLU      -0.546100
      2 C16          1.2160     0.0000     0.0000 c          1 SLU       0.617600
      3 C14          1.9530     0.0000     1.2760 cc         1 SLU       0.274800
      4 N15          3.2750    -0.0060     1.2900 nc         1 SLU      -0.662000
      5 C13          1.2730     0.0010     2.4820 cd         1 SLU      -0.080400
      6 S12          2.5850     0.0000     3.6190 ss         1 SLU      -0.173300
      7 C11          3.9250    -0.0010     2.4390 cd         1 SLU       0.489100
      8 C8           5.3780    -0.0020     2.6840 cd         1 SLU       0.410200
      9 S9           6.2540    -0.0030     4.2430 ss         1 SLU      -0.153100
     10 C4           7.8990    -0.0040     3.5710 ca         1 SLU       0.005900
     11 C5           9.1660    -0.0040     4.1010 ca         1 SLU      -0.138000
     12 C6          10.2590    -0.0060     3.2470 ca         1 SLU       0.141100
     13 O10         11.5230    -0.0070     3.7500 oh         1 SLU      -0.507100
     14 C3           7.6540    -0.0030     2.1760 ca         1 SLU       0.093400
     15 N7           6.3640    -0.0080     1.8110 nc         1 SLU      -0.567100
     16 C2           8.7980    -0.0040     1.3410 ca         1 SLU      -0.041000
     17 C1          10.0490    -0.0050     1.8700 ca         1 SLU      -0.149000
     18 N40          1.8890    -0.0010    -1.1670 ns         1 SLU      -0.670300
     19 S17          1.0610    -0.0010    -2.6010 s6         1 SLU       1.651100
     20 O18          2.0510     0.0560    -3.6200 o          1 SLU      -0.630800
     21 O19          0.0690    -1.0100    -2.4740 o          1 SLU      -0.630800
     22 O20          0.3030     1.3160    -2.6890 os         1 SLU      -0.507500
     23 C21          1.2640     2.3270    -2.9970 c3         1 SLU       0.124400
     24 C22          0.5630     3.6830    -3.0990 c3         1 SLU       0.137100
     25 C23          1.5760     4.7870    -3.4780 c3         1 SLU       0.093100
     26 O27          1.5220     5.0560    -4.8810 oh         1 SLU      -0.565800
     27 C24          1.1080     6.0200    -2.6710 c3         1 SLU       0.091100
     28 O28          0.7520     7.0900    -3.5500 oh         1 SLU      -0.556800
     29 C25         -0.1290     5.5130    -1.8980 c3         1 SLU       0.253800
     30 O26          0.0480     4.0820    -1.8100 os         1 SLU      -0.402600
     31 N35         -0.1720     6.1030    -0.5580 na         1 SLU      -0.256000
     32 C32         -0.7310     7.3100    -0.2200 ca         1 SLU       0.468800
     33 N31         -1.3610     8.2710    -0.8870 nb         1 SLU      -0.777000
     34 C30         -1.7960     9.3470    -0.2630 ca         1 SLU       0.731900
     35 N29         -1.6330     9.5270     1.0350 nb         1 SLU      -0.816000
     36 C33         -0.5280     7.4570     1.1630 ca         1 SLU      -0.197200
     37 C34         -1.0150     8.6200     1.7840 ca         1 SLU       0.784200
     38 N38         -0.8500     8.8170     3.1440 nv         1 SLU      -1.007500
     39 N37          0.1240     6.3500     1.5910 nc         1 SLU      -0.585100
     40 C36          0.3370     5.5560     0.5820 cd         1 SLU       0.431700
     41 H13          0.2050     0.0010     2.6660 h4         1 SLU       0.227000
     42 H5           9.3080    -0.1500     5.1640 ha         1 SLU       0.148000
     43 H10         11.6690    -0.8040     4.2310 ho         1 SLU       0.426000
     44 H2           8.6730    -0.0040     0.2650 ha         1 SLU       0.153000
     45 H1          10.9040    -0.0060     1.2050 ha         1 SLU       0.153000
     46 H40          2.8890    -0.0520    -1.1670 hn         1 SLU       0.366500
     47 H211         1.7420     2.0950    -3.9420 h1         1 SLU       0.078700
     48 H212         2.0120     2.3650    -2.2140 h1         1 SLU       0.078700
     49 H22         -0.2390     3.6450    -3.8270 h1         1 SLU       0.100700
     50 H23          2.5760     4.4980    -3.1790 h1         1 SLU       0.048700
     51 H27          2.3860     4.9800    -5.2490 ho         1 SLU       0.407000
     52 H24          1.8820     6.3320    -1.9790 h1         1 SLU       0.057700
     53 H28          1.3910     7.7800    -3.4790 ho         1 SLU       0.410000
     54 H25         -1.0340     5.7440    -2.4460 h2         1 SLU       0.116700
     55 H30         -2.3060    10.1120    -0.8360 h5         1 SLU       0.064100
     56 H381        -0.0130     8.5060     3.5970 hn         1 SLU       0.448800
     57 H382        -1.5700     9.2660     3.6750 hn         1 SLU       0.448800
     58 H36          0.8450     4.6010     0.6390 h5         1 SLU       0.085800
@<TRIPOS>BOND
     1     1     2 2
     2     2     3 1
     3     2    18 1
     4     3     4 1
     5     3     5 2
     6     4     7 2
     7     5     6 1
     8     5    41 1
     9     6     7 1
    10     7     8 1
    11     8     9 1
    12     8    15 2
    13     9    10 1
    14    10    11 ar
    15    10    14 ar
    16    11    12 ar
    17    11    42 1
    18    12    13 1
    19    12    17 ar
    20    13    43 1
    21    14    15 1
    22    14    16 ar
    23    16    17 ar
    24    16    44 1
    25    17    45 1
    26    18    19 1
    27    18    46 1
    28    19    20 2
    29    19    21 2
    30    19    22 1
    31    22    23 1
    32    23    24 1
    33    23    47 1
    34    23    48 1
    35    24    25 1
    36    24    30 1
    37    24    49 1
    38    25    26 1
    39    25    27 1
    40    25    50 1
    41    26    51 1
    42    27    28 1
    43    27    29 1
    44    27    52 1
    45    28    53 1
    46    29    30 1
    47    29    31 1
    48    29    54 1
    49    31    32 1
    50    31    40 1
    51    32    33 ar
    52    32    36 ar
    53    33    34 ar
    54    34    35 ar
    55    34    55 1
    56    35    37 ar
    57    36    37 ar
    58    36    39 1
    59    37    38 1
    60    38    56 1
    61    38    57 1
    62    39    40 2
    63    40    58 1
@<TRIPOS>SUBSTRUCTURE
     1 SLU         1 TEMP              0 ****  ****    0 ROOT
