@<TRIPOS>MOLECULE
molecule
   45    48     1     0     0
SMALL
bcc


@<TRIPOS>ATOM
      1 C1           0.0000     0.0000     0.0000 ca         1 SLX      -0.100300
      2 C2           1.3880     0.0000     0.0000 ca         1 SLX      -0.123000
      3 C3           2.0900     0.0000     1.1920 ca         1 SLX       0.074100
      4 C5           1.4000     0.0000     2.4000 ca         1 SLX       0.125100
      5 C8           0.0150     0.0010     2.3960 ca         1 SLX      -0.214000
      6 C9          -0.6820     0.0010     1.1980 ca         1 SLX      -0.031300
      7 C10         -2.1880     0.0010     1.2400 c3         1 SLX      -0.032100
      8 C11         -2.7350    -0.4820    -0.1020 c3         1 SLX       0.160800
      9 N12         -2.1310     0.3180    -1.1800 n3         1 SLX      -0.711600
     10 C14         -0.7070     0.0070    -1.3310 c3         1 SLX       0.220800
     11 C16         -0.0630     1.0750    -2.2210 c3         1 SLX      -0.018100
     12 C17         -0.8690     1.2620    -3.4790 ca         1 SLX      -0.089300
     13 C25         -0.2790     1.9080    -4.5530 ca         1 SLX      -0.103000
     14 C24         -0.9820     2.1060    -5.7260 ca         1 SLX      -0.203000
     15 C21         -2.2880     1.6560    -5.8300 ca         1 SLX       0.096100
     16 O22         -2.9870     1.8500    -6.9800 os         1 SLX      -0.326900
     17 C23         -2.3130     2.5260    -8.0430 c3         1 SLX       0.129700
     18 C19         -2.8810     1.0060    -4.7530 ca         1 SLX       0.083100
     19 O20         -4.1620     0.5630    -4.8530 oh         1 SLX      -0.508100
     20 C18         -2.1680     0.8070    -3.5770 ca         1 SLX      -0.061300
     21 C13         -2.8430     0.0770    -2.4430 c3         1 SLX       0.214100
     22 O6           2.0800     0.0000     3.5770 os         1 SLX      -0.314900
     23 C7           1.3020     0.0020     4.7760 c3         1 SLX       0.126700
     24 O4           3.4490    -0.0010     1.1840 oh         1 SLX      -0.505100
     25 H2           1.9260    -0.0000    -0.9400 ha         1 SLX       0.144000
     26 H8          -0.5260     0.0010     3.3340 ha         1 SLX       0.139000
     27 H10         -2.5430     1.0070     1.4330 hc         1 SLX       0.060200
     28 H10A        -2.5270    -0.6630     2.0270 hc         1 SLX       0.060200
     29 H11         -3.8110    -0.3580    -0.1200 h1         1 SLX       0.039200
     30 H11A        -2.4820    -1.5260    -0.2410 h1         1 SLX       0.039200
     31 H14         -0.5990    -0.9640    -1.7990 h1         1 SLX       0.035700
     32 H16         -0.0460     2.0130    -1.6790 hc         1 SLX       0.064200
     33 H16A         0.9320     0.7450    -2.4930 hc         1 SLX       0.064200
     34 H25          0.7430     2.2600    -4.4730 ha         1 SLX       0.133000
     35 H24         -0.5390     2.6750    -6.5340 ha         1 SLX       0.138000
     36 H23         -2.0300     3.5200    -7.7180 h1         1 SLX       0.042033
     37 H23A        -2.9720     2.6000    -8.9000 h1         1 SLX       0.042033
     38 H23B        -1.4240     1.9700    -8.3190 h1         1 SLX       0.042033
     39 HO20        -4.2090    -0.1240    -5.4970 ho         1 SLX       0.420000
     40 H13         -3.8550     0.4510    -2.3450 h1         1 SLX       0.055700
     41 H13A        -2.8220    -0.9850    -2.6540 h1         1 SLX       0.055700
     42 H7           0.6780    -0.8830     4.8020 h1         1 SLX       0.041700
     43 H7A          1.9630     0.0030     5.6350 h1         1 SLX       0.041700
     44 H7B          0.6780     0.8860     4.8010 h1         1 SLX       0.041700
     45 HO4          3.7620    -0.8820     1.0650 ho         1 SLX       0.414000
@<TRIPOS>BOND
     1     1     2 ar
     2     1     6 ar
     3     1    10 1
     4     2     3 ar
     5     3     4 ar
     6     3    24 1
     7     4     5 ar
     8     4    22 1
     9     5     6 ar
    10     6     7 1
    11     7     8 1
    12     8     9 1
    13     9    10 1
    14     9    21 1
    15    10    11 1
    16    11    12 1
    17    12    13 ar
    18    12    20 ar
    19    13    14 ar
    20    14    15 ar
    21    15    16 1
    22    15    18 ar
    23    16    17 1
    24    18    19 1
    25    18    20 ar
    26    20    21 1
    27    22    23 1
    28     2    25 1
    29     5    26 1
    30     7    27 1
    31     7    28 1
    32     8    29 1
    33     8    30 1
    34    10    31 1
    35    11    32 1
    36    11    33 1
    37    13    34 1
    38    14    35 1
    39    17    36 1
    40    17    37 1
    41    17    38 1
    42    19    39 1
    43    21    40 1
    44    21    41 1
    45    23    42 1
    46    23    43 1
    47    23    44 1
    48    24    45 1
@<TRIPOS>SUBSTRUCTURE
     1 SLX         1 TEMP              0 ****  ****    0 ROOT
