@<TRIPOS>MOLECULE
SM1
   62    63     1     0     0
SMALL
bcc


@<TRIPOS>ATOM
      1 N6           0.0000     0.0000     0.0000 nz         1 SM1       0.124400
      2 C18          1.3750     0.0000     0.0000 c2         1 SM1       0.229100
      3 N5           2.0260     0.0000     1.1280 n2         1 SM1      -0.601100
      4 N4           2.0640    -0.0010    -1.1920 nu         1 SM1      -0.196600
      5 C14          3.4580    -0.1200    -1.1940 ca         1 SM1      -0.061400
      6 C13          4.0920    -0.8810    -0.2240 ca         1 SM1      -0.090000
      7 C12          5.4680    -0.9950    -0.2290 ca         1 SM1      -0.056000
      8 C17          6.2150    -0.3540    -1.1990 ca         1 SM1      -0.092300
      9 C16          5.5850     0.4110    -2.1640 ca         1 SM1      -0.056000
     10 C15          4.2090     0.5250    -2.1690 ca         1 SM1      -0.090000
     11 C11          7.7160    -0.4810    -1.2020 c3         1 SM1       0.106300
     12 N3           8.1070    -1.6350    -2.0150 ns         1 SM1      -0.199900
     13 C10          9.4100    -1.9450    -2.1610 c          1 SM1       0.571100
     14 O5          10.2590    -1.2700    -1.6210 o          1 SM1      -0.641100
     15 C8           9.8130    -3.1330    -2.9960 c3         1 SM1      -0.050300
     16 C22          9.1940    -4.4030    -2.4070 c3         1 SM1      -0.011100
     17 N2          11.2710    -3.2570    -2.9980 ns         1 SM1      -0.182900
     18 C7          11.9000    -3.7870    -4.0640 c          1 SM1       0.574100
     19 C5          13.4020    -3.9150    -4.0680 c3         1 SM1       0.131500
     20 C6          13.8410    -4.8020    -2.9010 c3         1 SM1       0.206400
     21 O3          13.2520    -6.0970    -3.0400 oh         1 SM1      -0.583800
     22 N1          13.8400    -4.5160    -5.3290 n7         1 SM1      -0.566100
     23 O4          11.2590    -4.1630    -5.0230 o          1 SM1      -0.626100
     24 O2          15.1130    -4.6220    -7.3720 o          1 SM1      -0.570800
     25 S1          14.8630    -3.6870    -6.3310 s6         1 SM1       0.954900
     26 O1          14.1640    -2.4720    -6.5600 o          1 SM1      -0.570800
     27 C1          16.3320    -3.4280    -5.2990 c3         1 SM1       0.052700
     28 C4          17.3720    -2.6730    -6.0850 ca         1 SM1      -0.094300
     29 C19         17.3920    -1.2910    -6.0550 ca         1 SM1      -0.086000
     30 C20         18.3460    -0.5980    -6.7770 ca         1 SM1      -0.093000
     31 C21         19.2800    -1.2860    -7.5280 ca         1 SM1      -0.091000
     32 C2          19.2610    -2.6680    -7.5560 ca         1 SM1      -0.093000
     33 C3          18.3100    -3.3610    -6.8310 ca         1 SM1      -0.086000
     34 H6N1        -0.3340     0.9380     0.0990 hn         1 SM1       0.227133
     35 H6N2        -0.3340    -0.5550     0.7630 hn         1 SM1       0.227133
     36 H51          1.5270     0.0000     1.9950 hn         1 SM1       0.346400
     37 H4           1.5660     0.0590    -2.0580 hn         1 SM1       0.286800
     38 H13          3.5090    -1.3850     0.5380 ha         1 SM1       0.117500
     39 H12          5.9640    -1.5920     0.5270 ha         1 SM1       0.125000
     40 H16          6.1720     0.9130    -2.9230 ha         1 SM1       0.125000
     41 H15          3.7170     1.1250    -2.9250 ha         1 SM1       0.117500
     42 H111         8.1530     0.4180    -1.6180 h1         1 SM1       0.037200
     43 H112         8.0680    -0.6170    -0.1870 h1         1 SM1       0.037200
     44 H3           7.4090    -2.1710    -2.4920 hn         1 SM1       0.180500
     45 H8           9.4600    -2.9970    -4.0110 h1         1 SM1       0.072700
     46 H221         9.8590    -5.2410    -2.5790 hc         1 SM1       0.014367
     47 H222         9.0460    -4.2720    -1.3420 hc         1 SM1       0.014367
     48 H223         8.2410    -4.5950    -2.8840 hc         1 SM1       0.014367
     49 H2          11.8020    -2.9320    -2.2150 hn         1 SM1       0.193500
     50 H5          13.8480    -2.9330    -3.9620 h1         1 SM1       0.047700
     51 H6C1        13.5180    -4.3570    -1.9680 h1         1 SM1      -0.009800
     52 H6C2        14.9200    -4.8940    -2.9030 h1         1 SM1      -0.009800
     53 HA          13.5810    -6.6660    -2.3640 ho         1 SM1       0.396000
     54 H1          13.5020    -5.4200    -5.5960 hn         1 SM1       0.376800
     55 H1C1        16.7340    -4.3870    -4.9960 h1         1 SM1       0.066200
     56 H1C2        16.0590    -2.8570    -4.4200 h1         1 SM1       0.066200
     57 H19         16.6600    -0.7510    -5.4670 ha         1 SM1       0.111000
     58 H20         18.3610     0.4850    -6.7540 ha         1 SM1       0.106500
     59 H21         20.0270    -0.7420    -8.0940 ha         1 SM1       0.105000
     60 HC          19.9950    -3.2070    -8.1420 ha         1 SM1       0.106500
     61 HB          18.2950    -4.4440    -6.8540 ha         1 SM1       0.111000
     62 H63         -0.3340    -0.3960    -0.8560 hn         1 SM1       0.227133
@<TRIPOS>BOND
     1     1     2 1   
     2     1    34 1   
     3     1    35 1   
     4     1    62 1   
     5     2     3 2   
     6     2     4 1   
     7     3    36 1   
     8     4     5 1   
     9     4    37 1   
    10     5     6 ar  
    11     5    10 ar  
    12     6     7 ar  
    13     6    38 1   
    14     7     8 ar  
    15     7    39 1   
    16     8     9 ar  
    17     8    11 1   
    18     9    10 ar  
    19     9    40 1   
    20    10    41 1   
    21    11    12 1   
    22    11    42 1   
    23    11    43 1   
    24    12    13 1   
    25    12    44 1   
    26    13    14 2   
    27    13    15 1   
    28    15    16 1   
    29    15    17 1   
    30    15    45 1   
    31    16    46 1   
    32    16    47 1   
    33    16    48 1   
    34    17    18 1   
    35    17    49 1   
    36    18    19 1   
    37    18    23 2   
    38    19    20 1   
    39    19    22 1   
    40    19    50 1   
    41    20    21 1   
    42    20    51 1   
    43    20    52 1   
    44    21    53 1   
    45    22    25 1   
    46    22    54 1   
    47    24    25 2   
    48    25    26 2   
    49    25    27 1   
    50    27    28 1   
    51    27    55 1   
    52    27    56 1   
    53    28    29 ar  
    54    28    33 ar  
    55    29    30 ar  
    56    29    57 1   
    57    30    31 ar  
    58    30    58 1   
    59    31    32 ar  
    60    31    59 1   
    61    32    33 ar  
    62    32    60 1   
    63    33    61 1   
@<TRIPOS>SUBSTRUCTURE
     1 SM1         1 TEMP              0 ****  ****    0 ROOT
