@<TRIPOS>MOLECULE
SM5
   51    55     1     0     0
SMALL
bcc


@<TRIPOS>ATOM
      1 C18          0.0000     0.0000     0.0000 c3         1 SM5      -0.043000
      2 N4          -0.4900     0.0580    -1.3800 na         1 SM5       0.509400
      3 C14         -1.1480     2.3320    -6.7870 ca         1 SM5      -0.047000
      4 C13         -0.8610     1.4830    -5.7440 ca         1 SM5      -0.111000
      5 C12         -1.3970     1.7260    -4.4800 ca         1 SM5       0.031000
      6 C17         -2.2260     2.8280    -4.2760 ca         1 SM5      -0.099000
      7 C16         -2.5170     3.6810    -5.3210 ca         1 SM5      -0.078300
      8 C15         -1.9780     3.4450    -6.5850 ca         1 SM5      -0.151900
      9 C11         -2.7290    -0.9740    -5.3280 ca         1 SM5      -0.207300
     10 N3          -0.8640    -1.0420    -2.1610 nc         1 SM5      -0.641800
     11 C10         -3.1390    -1.7790    -6.3710 ca         1 SM5       0.398700
     12 C8          -1.6590    -3.4440    -5.7680 ca         1 SM5       0.398700
     13 C22          0.0630     1.1870     2.1960 c3         1 SM5       0.152800
     14 C7          -1.1860    -2.7030    -4.7050 ca         1 SM5      -0.207300
     15 C5          -0.6610     1.1790    -2.1080 cc         1 SM5      -0.239300
     16 C6          -1.7270    -1.4350    -4.4690 ca         1 SM5      -0.082500
     17 C1          -1.1300     0.8120    -3.3350 cd         1 SM5      -0.253300
     18 C19          1.5310     0.0000     0.0000 c3         1 SM5      -0.041900
     19 C20          2.0370     0.0000     1.4440 c3         1 SM5       0.152800
     20 C2          -1.2500    -0.6020    -3.3400 cd         1 SM5       0.432800
     21 N9          -2.6030    -2.9700    -6.5590 nb         1 SM5      -0.584000
     22 N21          1.5300     1.1890     2.1420 n7         1 SM5      -0.581200
     23 C23         -0.5030     1.2220     0.7730 c3         1 SM5      -0.041900
     24 C24         -3.3740     4.9240    -5.3600 c3         1 SM5       0.036900
     25 C25         -3.3170     5.4440    -6.8020 c3         1 SM5      -0.079700
     26 C26         -2.4230     4.4790    -7.5400 ce         1 SM5       0.420900
     27 N27         -2.0990     4.5470    -8.7910 n2         1 SM5      -0.397200
     28 O28         -2.6020     5.5980    -9.5960 oh         1 SM5      -0.372500
     29 H18         -0.3600    -0.9020     0.4790 h1         1 SM5       0.057700
     30 H13         -0.2160     0.6270    -5.9030 ha         1 SM5       0.116000
     31 H17         -2.6430     3.0160    -3.2940 ha         1 SM5       0.109000
     32 H11         -3.1730     0.0030    -5.1800 ha         1 SM5       0.126000
     33 H10         -3.9140    -1.4290    -7.0430 h4         1 SM5      -0.020400
     34 H8          -1.2460    -4.4270    -5.9590 h4         1 SM5      -0.020400
     35 H122        -0.2780     2.0590     2.7400 h1         1 SM5       0.010200
     36 H222        -0.2770     0.2880     2.6960 h1         1 SM5       0.010200
     37 H7          -0.4090    -3.0980    -4.0610 ha         1 SM5       0.126000
     38 H5          -0.3930     2.1830    -1.8030 h4         1 SM5       0.156000
     39 H119         1.8910    -0.8860    -0.5080 hc         1 SM5       0.032200
     40 H219         1.8910     0.8860    -0.5080 hc         1 SM5       0.032200
     41 H120         3.1200     0.0170     1.4460 h1         1 SM5       0.010200
     42 H220         1.6840    -0.8910     1.9490 h1         1 SM5       0.010200
     43 H123        -1.5860     1.2010     0.8150 hc         1 SM5       0.032200
     44 H223        -0.1720     2.1250     0.2760 hc         1 SM5       0.032200
     45 H24         -2.9770     5.6690    -4.6810 hc         1 SM5       0.023200
     46 H25         -4.3100     5.4220    -7.2340 hc         1 SM5       0.036700
     47 HO28        -2.2760     5.5050   -10.4750 ho         1 SM5       0.416000
     48 H121         1.8980     1.2120     3.0720 hn         1 SM5       0.257800
     49 H22         -4.3950     4.6780    -5.0940 hc         1 SM5       0.023200
     50 H23         -2.8730     6.4320    -6.8130 hc         1 SM5       0.036700
     51 H14         -0.7300     2.1410    -7.7680 ha         1 SM5       0.114000
@<TRIPOS>BOND
     1     1     2 1   
     2     1    18 1   
     3     1    23 1   
     4     1    29 1   
     5     2    10 1   
     6     2    15 1   
     7     3     4 ar  
     8     3     8 ar  
     9     3    51 1   
    10     4     5 ar  
    11     4    30 1   
    12     5     6 ar  
    13     5    17 1   
    14     6     7 ar  
    15     6    31 1   
    16     7     8 ar  
    17     7    24 1   
    18     8    26 1   
    19     9    11 ar  
    20     9    16 ar  
    21     9    32 1   
    22    10    20 2   
    23    11    21 ar  
    24    11    33 1   
    25    12    14 ar  
    26    12    21 ar  
    27    12    34 1   
    28    13    22 1   
    29    13    23 1   
    30    13    35 1   
    31    13    36 1   
    32    14    16 ar  
    33    14    37 1   
    34    15    17 2   
    35    15    38 1   
    36    16    20 1   
    37    17    20 1   
    38    18    19 1   
    39    18    39 1   
    40    18    40 1   
    41    19    22 1   
    42    19    41 1   
    43    19    42 1   
    44    22    48 1   
    45    23    43 1   
    46    23    44 1   
    47    24    25 1   
    48    24    45 1   
    49    24    49 1   
    50    25    26 1   
    51    25    46 1   
    52    25    50 1   
    53    26    27 2   
    54    27    28 1   
    55    28    47 1   
@<TRIPOS>SUBSTRUCTURE
     1 SM5         1 TEMP              0 ****  ****    0 ROOT
