@<TRIPOS>MOLECULE
molecule
   43    46     1     0     0
SMALL
bcc


@<TRIPOS>ATOM
      1 C1           0.0000     0.0000     0.0000 ca         1 SM6      -0.190000
      2 C2           1.4800     0.0000     0.0000 ca         1 SM6       0.027000
      3 C3           2.1680     0.0000     1.2970 ca         1 SM6      -0.197000
      4 C4           1.4280     0.0010     2.4380 ca         1 SM6       0.212600
      5 C5           0.0200     0.0010     2.4030 ca         1 SM6      -0.187000
      6 C6          -0.6760    -0.0050     1.2500 ca         1 SM6      -0.035000
      7 C7          -0.4620    -0.0000    -1.2840 c2         1 SM6       0.172800
      8 C8           0.7480     0.0050    -2.1900 c3         1 SM6      -0.011000
      9 C9           1.9460    -0.0010    -1.2700 c2         1 SM6      -0.266200
     10 N10          2.0780     0.0000     3.6700 nu         1 SM6      -0.717400
     11 C11          1.7810     0.9760     4.6110 cc         1 SM6       0.249800
     12 N12         -1.7720    -0.0060    -1.6770 nu         1 SM6      -0.591500
     13 C13          2.2610     2.3420     4.5090 ca         1 SM6      -0.078800
     14 C14          1.8280     3.1370     5.5780 ca         1 SM6      -0.144400
     15 S15          0.8430     2.1860     6.6790 ss         1 SM6      -0.017500
     16 C16          1.0130     0.7400     5.7040 cd         1 SM6      -0.127600
     17 C17          0.4290    -0.5140     6.0200 c          1 SM6       0.675300
     18 O18          0.6820    -1.4910     5.3400 o          1 SM6      -0.530000
     19 C19          3.0700     2.9530     3.5240 ca         1 SM6      -0.188300
     20 C20          3.3930     4.2710     3.6490 ca         1 SM6       0.400200
     21 N21          2.9660     4.9920     4.6720 nb         1 SM6      -0.671000
     22 C22          2.2120     4.4810     5.6190 ca         1 SM6       0.453200
     23 O23         -2.8030    -0.0120    -0.7060 oh         1 SM6      -0.329300
     24 O24         -0.4070    -0.6230     7.0740 os         1 SM6      -0.427900
     25 C25         -2.0430    -1.7830     8.4220 c3         1 SM6      -0.096100
     26 C26         -1.0500    -1.8850     7.2630 c3         1 SM6       0.147400
     27 H3           3.2500    -0.0000     1.3440 ha         1 SM6       0.132000
     28 H5          -0.5240     0.0020     3.3400 ha         1 SM6       0.131000
     29 H6          -1.7590    -0.0040     1.2750 ha         1 SM6       0.137000
     30 H8           0.7520    -0.8940    -2.7940 hc         1 SM6       0.075700
     31 H9           2.8220    -0.5840    -1.5250 ha         1 SM6       0.147000
     32 HN10         2.7860    -0.6810     3.8620 hn         1 SM6       0.463800
     33 HN12        -2.0020    -0.0030    -2.6510 hn         1 SM6       0.453800
     34 H19          3.4300     2.3800     2.6790 ha         1 SM6       0.153000
     35 H20          4.0130     4.7390     2.8940 h4         1 SM6       0.028100
     36 H22          1.8840     5.1080     6.4400 h4         1 SM6       0.029100
     37 HO23        -3.6410    -0.0180    -1.1380 ho         1 SM6       0.405000
     38 H25         -1.5140    -1.5110     9.3280 hc         1 SM6       0.047367
     39 H25A        -2.5320    -2.7390     8.5640 hc         1 SM6       0.047367
     40 H25B        -2.7860    -1.0270     8.1970 hc         1 SM6       0.047367
     41 H26         -0.3060    -2.6390     7.4900 h1         1 SM6       0.047700
     42 H26A        -1.5790    -2.1600     6.3580 h1         1 SM6       0.047700
     43 H8A          0.7520     0.9120    -2.7830 hc         1 SM6       0.075700
@<TRIPOS>BOND
     1     2     1 ar
     2     1     7 2
     3     1     6 ar
     4     9     2 2
     5     3     2 ar
     6     3     4 ar
     7     3    27 1
     8    10     4 1
     9     4     5 ar
    10     5     6 ar
    11     5    28 1
    12     6    29 1
    13     8     7 1
    14     7    12 1
    15     9     8 1
    16     8    30 1
    17     9    31 1
    18    11    10 1
    19    10    32 1
    20    16    11 2
    21    13    11 1
    22    12    23 1
    23    12    33 1
    24    14    13 ar
    25    13    19 ar
    26    22    14 ar
    27    15    14 1
    28    15    16 1
    29    16    17 1
    30    17    24 1
    31    17    18 2
    32    20    19 ar
    33    19    34 1
    34    21    20 ar
    35    20    35 1
    36    22    21 ar
    37    22    36 1
    38    23    37 1
    39    26    24 1
    40    25    26 1
    41    25    38 1
    42    25    39 1
    43    25    40 1
    44    26    41 1
    45    26    42 1
    46     8    43 1
@<TRIPOS>SUBSTRUCTURE
     1 SM6         1 TEMP              0 ****  ****    0 ROOT
