@<TRIPOS>MOLECULE
molecule
   49    54     1     0     0
SMALL
bcc


@<TRIPOS>ATOM
      1 C1           0.0000     0.0000     0.0000 cc         1 SM7      -0.271300
      2 C2           1.4170     0.0000     0.0000 cc         1 SM7       0.402800
      3 N3           1.8210     0.0000     1.2520 nd         1 SM7      -0.497800
      4 N4           0.6910     0.0000     2.0790 na         1 SM7       0.080400
      5 C5          -0.4100    -0.0000     1.3000 cd         1 SM7      -0.088300
      6 C6          -0.8780     0.0050    -1.1960 ca         1 SM7      -0.005000
      7 C7           2.2910    -0.0000    -1.1980 ca         1 SM7      -0.077500
      8 C8           3.5080     0.6880    -1.1990 ca         1 SM7      -0.238300
      9 C9           4.2900     0.6620    -2.3360 ca         1 SM7       0.417700
     10 N10          3.9030    -0.0000    -3.4090 nb         1 SM7      -0.688000
     11 C11          2.7620    -0.6620    -3.4490 ca         1 SM7       0.417700
     12 C12          1.9230    -0.6930    -2.3550 ca         1 SM7      -0.238300
     13 C13          0.7030     0.0010     3.5450 c3         1 SM7       0.079000
     14 C14          0.5820    -1.4370     4.0580 c3         1 SM7      -0.094900
     15 C15          0.5340    -1.4250     5.5870 c3         1 SM7       0.159300
     16 N16         -0.6160    -0.6290     6.0360 n7         1 SM7      -0.821200
     17 C17         -0.4980     0.7670     5.5950 c3         1 SM7       0.159300
     18 C18         -0.4810     0.8210     4.0660 c3         1 SM7      -0.094900
     19 C19         -1.0410    -1.1590    -1.9430 ca         1 SM7      -0.092000
     20 C20         -1.8590    -1.1660    -3.0620 ca         1 SM7      -0.102000
     21 C21         -2.5200    -0.0140    -3.4470 ca         1 SM7      -0.083500
     22 C22         -2.3620     1.1760    -2.6960 ca         1 SM7      -0.146800
     23 C23         -1.5420     1.1750    -1.5670 ca         1 SM7      -0.052000
     24 C24         -3.4430     0.2980    -4.5660 cc         1 SM7       0.354800
     25 C25         -3.8080     1.6670    -4.4470 cc         1 SM7      -0.390600
     26 C26         -3.1730     2.2130    -3.3350 cd         1 SM7       0.122800
     27 N27         -4.0680    -0.1640    -5.6270 nd         1 SM7      -0.286000
     28 N28         -4.7780     0.7490    -6.1850 nd         1 SM7      -0.337000
     29 C29         -4.6830     1.8950    -5.5400 cc         1 SM7       0.382200
     30 H5          -1.4370    -0.0000     1.6450 h4         1 SM7       0.180000
     31 H8           3.8320     1.2340    -0.3210 ha         1 SM7       0.150000
     32 H9           5.2350     1.1920    -2.3460 h4         1 SM7       0.025100
     33 H11          2.4850    -1.1940    -4.3510 h4         1 SM7       0.025100
     34 H12          0.9880    -1.2380    -2.3960 ha         1 SM7       0.150000
     35 H13          1.6280     0.4350     3.9040 h1         1 SM7       0.083700
     36 H14         -0.3270    -1.8820     3.6720 hc         1 SM7       0.062200
     37 H14A         1.4400    -2.0100     3.7290 hc         1 SM7       0.062200
     38 H15          0.4310    -2.4410     5.9520 h1         1 SM7       0.039200
     39 H15A         1.4470    -0.9880     5.9730 h1         1 SM7       0.039200
     40 HN16        -0.6740    -0.6590     7.0340 hn         1 SM7       0.361800
     41 H17         -1.3430     1.3340     5.9650 h1         1 SM7       0.039200
     42 H17A         0.4230     1.1890     5.9800 h1         1 SM7       0.039200
     43 H18         -1.4040     0.4060     3.6800 hc         1 SM7       0.062200
     44 H18A        -0.3770     1.8500     3.7420 hc         1 SM7       0.062200
     45 H19         -0.5400    -2.0700    -1.6370 ha         1 SM7       0.148000
     46 H20         -1.9800    -2.0760    -3.6380 ha         1 SM7       0.153000
     47 H23         -1.3360     2.1030    -1.0470 ha         1 SM7       0.143000
     48 H26         -2.8200     3.2370    -3.3600 ha         1 SM7       0.158000
     49 H29         -5.5590     2.5180    -5.4110 h4         1 SM7       0.047100
@<TRIPOS>BOND
     1     2     1 1
     2     1     5 2
     3     1     6 1
     4     7     2 1
     5     3     2 2
     6     3     4 1
     7    13     4 1
     8     4     5 1
     9     5    30 1
    10    23     6 ar
    11     6    19 ar
    12    12     7 ar
    13     7     8 ar
    14     9     8 ar
    15     8    31 1
    16    10     9 ar
    17     9    32 1
    18    11    10 ar
    19    11    12 ar
    20    11    33 1
    21    12    34 1
    22    13    14 1
    23    13    18 1
    24    13    35 1
    25    14    15 1
    26    14    36 1
    27    14    37 1
    28    15    16 1
    29    15    38 1
    30    15    39 1
    31    17    16 1
    32    16    40 1
    33    18    17 1
    34    17    41 1
    35    17    42 1
    36    18    43 1
    37    18    44 1
    38    19    20 ar
    39    19    45 1
    40    21    20 ar
    41    20    46 1
    42    22    21 ar
    43    21    24 1
    44    26    22 1
    45    23    22 ar
    46    23    47 1
    47    25    24 1
    48    24    27 2
    49    26    25 2
    50    25    29 1
    51    26    48 1
    52    28    27 1
    53    29    28 2
    54    29    49 1
@<TRIPOS>SUBSTRUCTURE
     1 SM7         1 TEMP              0 ****  ****    0 ROOT
