@<TRIPOS>MOLECULE
SM7
   49    54     1     0     0
SMALL
bcc


@<TRIPOS>ATOM
      1 C1           0.0000     0.0000     0.0000 cc         1 SM7      -0.267300
      2 C2           1.4170     0.0000     0.0000 cc         1 SM7       0.435800
      3 N3           1.8210     0.0000     1.2520 nd         1 SM7      -0.637800
      4 N4           0.6910     0.0000     2.0790 na         1 SM7       0.510400
      5 C5          -0.4100    -0.0000     1.3000 cd         1 SM7      -0.234300
      6 C6          -0.8780     0.0050    -1.1960 ca         1 SM7       0.002000
      7 C7           2.2910    -0.0000    -1.1980 ca         1 SM7      -0.080500
      8 C8           3.5080     0.6880    -1.1990 ca         1 SM7      -0.220300
      9 C9           4.2900     0.6620    -2.3360 ca         1 SM7       0.402700
     10 N10          3.9030    -0.0000    -3.4090 nb         1 SM7      -0.582000
     11 C11          2.7620    -0.6620    -3.4490 ca         1 SM7       0.402700
     12 C12          1.9230    -0.6930    -2.3550 ca         1 SM7      -0.220300
     13 C13          0.7030     0.0010     3.5450 c3         1 SM7      -0.043000
     14 C14          0.5820    -1.4370     4.0580 c3         1 SM7      -0.041900
     15 C15          0.5340    -1.4250     5.5870 c3         1 SM7       0.152800
     16 N16         -0.6160    -0.6290     6.0360 n7         1 SM7      -0.581200
     17 C17         -0.4980     0.7670     5.5950 c3         1 SM7       0.152800
     18 C18         -0.4810     0.8210     4.0660 c3         1 SM7      -0.041900
     19 C19         -1.0410    -1.1590    -1.9430 ca         1 SM7      -0.066000
     20 C20         -1.8590    -1.1660    -3.0620 ca         1 SM7      -0.077000
     21 C21         -2.5200    -0.0140    -3.4470 ca         1 SM7       0.038000
     22 C22         -2.3620     1.1760    -2.6960 ca         1 SM7      -0.163000
     23 C23         -1.5420     1.1750    -1.5670 ca         1 SM7      -0.013000
     24 C24         -3.4430     0.2980    -4.5660 cc         1 SM7       0.212300
     25 C25         -3.8080     1.6670    -4.4470 cc         1 SM7      -0.429400
     26 C26         -3.1730     2.2130    -3.3350 cc         1 SM7       0.204800
     27 N27         -4.0680    -0.1640    -5.6270 nc         1 SM7      -0.230000
     28 N28         -4.7780     0.7490    -6.1850 nd         1 SM7      -0.335000
     29 C29         -4.6830     1.8950    -5.5400 cd         1 SM7       0.425200
     30 H5          -1.4370    -0.0000     1.6450 h4         1 SM7       0.156000
     31 H8           3.8320     1.2340    -0.3210 ha         1 SM7       0.130000
     32 H9           5.2350     1.1920    -2.3460 h4         1 SM7      -0.019900
     33 H11          2.4850    -1.1940    -4.3510 h4         1 SM7      -0.019900
     34 H12          0.9880    -1.2380    -2.3960 ha         1 SM7       0.130000
     35 H13          1.6280     0.4350     3.9040 h1         1 SM7       0.057700
     36 H14         -0.3270    -1.8820     3.6720 hc         1 SM7       0.032200
     37 H14A         1.4400    -2.0100     3.7290 hc         1 SM7       0.032200
     38 H15          0.4310    -2.4410     5.9520 h1         1 SM7       0.010950
     39 H15A         1.4470    -0.9880     5.9730 h1         1 SM7       0.010950
     40 HN16        -0.6740    -0.6590     7.0340 hn         1 SM7       0.258800
     41 H17         -1.3430     1.3340     5.9650 h1         1 SM7       0.010950
     42 H17A         0.4230     1.1890     5.9800 h1         1 SM7       0.010950
     43 H18         -1.4040     0.4060     3.6800 hc         1 SM7       0.032200
     44 H18A        -0.3770     1.8500     3.7420 hc         1 SM7       0.032200
     45 H19         -0.5400    -2.0700    -1.6370 ha         1 SM7       0.119000
     46 H20         -1.9800    -2.0760    -3.6380 ha         1 SM7       0.121000
     47 H23         -1.3360     2.1030    -1.0470 ha         1 SM7       0.110000
     48 H26         -2.8200     3.2370    -3.3600 ha         1 SM7       0.111000
     49 H29         -5.5590     2.5180    -5.4110 h4         1 SM7       0.000100
@<TRIPOS>BOND
     1     1     2 1   
     2     1     5 2   
     3     1     6 1   
     4     2     3 2   
     5     2     7 1   
     6     3     4 1   
     7     4     5 1   
     8     4    13 1   
     9     5    30 1   
    10     6    19 ar  
    11     6    23 ar  
    12     7     8 ar  
    13     7    12 ar  
    14     8     9 ar  
    15     8    31 1   
    16     9    10 ar  
    17     9    32 1   
    18    10    11 ar  
    19    11    12 ar  
    20    11    33 1   
    21    12    34 1   
    22    13    14 1   
    23    13    18 1   
    24    13    35 1   
    25    14    15 1   
    26    14    36 1   
    27    14    37 1   
    28    15    16 1   
    29    15    38 1   
    30    15    39 1   
    31    16    17 1   
    32    16    40 1   
    33    17    18 1   
    34    17    41 1   
    35    17    42 1   
    36    18    43 1   
    37    18    44 1   
    38    19    20 ar  
    39    19    45 1   
    40    20    21 ar  
    41    20    46 1   
    42    21    22 ar  
    43    21    24 2   
    44    22    23 ar  
    45    22    26 2   
    46    23    47 1   
    47    24    25 1   
    48    24    27 1   
    49    25    26 1   
    50    25    29 2   
    51    26    48 1   
    52    27    28 2   
    53    28    29 1   
    54    29    49 1   
@<TRIPOS>SUBSTRUCTURE
     1 SM7         1 TEMP              0 ****  ****    0 ROOT
