@<TRIPOS>MOLECULE
molecule
   84    88     1     0     0
SMALL
bcc


@<TRIPOS>ATOM
      1 C1           0.0000     0.0000     0.0000 c3         1 SM9       0.118800
      2 C2           1.5310     0.0000     0.0000 c3         1 SM9       0.125100
      3 C3           2.0410     0.0000     1.4420 c3         1 SM9       0.221800
      4 O4           2.0060    -1.1670    -0.6740 oh         1 SM9      -0.600800
      5 N5           3.5020     0.1050     1.4440 n3         1 SM9      -0.796500
      6 C6           4.1500     1.3060     0.9100 c3         1 SM9       0.234800
      7 C7           3.9550     2.4670     1.8870 c3         1 SM9       0.119400
      8 C8           4.6250    -2.3110     0.7520 ca         1 SM9      -0.308500
      9 C9           5.6670    -2.1770    -0.1450 ca         1 SM9       0.035200
     10 C10          5.8270    -3.1000    -1.1620 ca         1 SM9      -0.162500
     11 C11          4.9440    -4.1580    -1.2800 ca         1 SM9      -0.067000
     12 C12          3.9020    -4.2910    -0.3820 ca         1 SM9      -0.162500
     13 C13          3.7460    -3.3720     0.6380 ca         1 SM9       0.035200
     14 C14          2.6100    -3.5180     1.6170 c3         1 SM9      -0.075300
     15 C15          6.6290    -1.0240    -0.0170 c3         1 SM9      -0.075300
     16 C16         -0.6380     1.3680    -3.4470 c3         1 SM9      -0.068000
     17 C17         -2.1110     0.9920    -3.5910 c3         1 SM9      -0.073400
     18 C18         -2.3550    -0.3620    -2.9170 c3         1 SM9      -0.080400
     19 C19         -1.9160    -0.2810    -1.4520 c3         1 SM9       0.162800
     20 N20         -0.4890     0.0600    -1.3840 n3         1 SM9      -0.738600
     21 C21         -0.2300     1.3780    -1.9780 c3         1 SM9       0.172800
     22 C22         -0.3850     2.7530    -4.0750 c3         1 SM9      -0.079400
     23 C23          0.1500     2.3990    -5.4860 c3         1 SM9       0.151800
     24 N24          0.9790     1.1910    -5.2420 nh         1 SM9      -0.708300
     25 C25          0.2410     0.3900    -4.2390 c3         1 SM9       0.166800
     26 C26          1.1620     0.4750    -6.4060 ca         1 SM9       0.662200
     27 C27          2.4650     0.1600    -6.8690 ca         1 SM9      -0.262600
     28 C28          2.5860    -0.5770    -8.0720 ca         1 SM9       0.445600
     29 N29          1.4700    -0.9450    -8.7190 nb         1 SM9      -0.730000
     30 C30          0.2900    -0.6250    -8.2430 ca         1 SM9       0.689900
     31 N31          0.1260     0.0590    -7.1210 nb         1 SM9      -0.796000
     32 C32          3.6150     0.5530    -6.1780 ca         1 SM9      -0.072000
     33 C33          4.8420     0.2210    -6.6710 ca         1 SM9      -0.144000
     34 C34          4.9640    -0.5040    -7.8530 ca         1 SM9      -0.098000
     35 C35          3.8620    -0.9020    -8.5500 ca         1 SM9      -0.182300
     36 O36          4.6370     2.1790     3.1110 os         1 SM9      -0.416600
     37 C37          5.2820     2.7950     5.3570 c3         1 SM9      -0.091100
     38 C38          4.5170     3.2060     4.0970 c3         1 SM9       0.136400
     39 S39          4.4200    -1.1330     2.0470 sy         1 SM9       1.441200
     40 O40          5.7080    -0.5900     2.3020 o          1 SM9      -0.641300
     41 O41          3.6330    -1.7680     3.0450 o          1 SM9      -0.641300
     42 H1          -0.3610     0.8620     0.5480 h1         1 SM9       0.045200
     43 H1A         -0.3610    -0.9060     0.4720 h1         1 SM9       0.045200
     44 H2           1.8920     0.8840    -0.5110 h1         1 SM9       0.053700
     45 H3           1.7450    -0.9210     1.9300 h1         1 SM9       0.065700
     46 H3A          1.6180     0.8430     1.9750 h1         1 SM9       0.065700
     47 HO4          1.2830    -1.6080    -1.0860 ho         1 SM9       0.419000
     48 H6           5.2090     1.1180     0.7800 h1         1 SM9       0.068200
     49 H6A          3.7080     1.5610    -0.0450 h1         1 SM9       0.068200
     50 H7           4.3580     3.3740     1.4550 h1         1 SM9       0.024200
     51 H7A          2.8980     2.5990     2.0850 h1         1 SM9       0.024200
     52 H10          6.6440    -2.9950    -1.8660 ha         1 SM9       0.131000
     53 H11          5.0670    -4.8800    -2.0780 ha         1 SM9       0.128000
     54 H12          3.2120    -5.1210    -0.4740 ha         1 SM9       0.131000
     55 H14          1.8780    -4.2110     1.2200 hc         1 SM9       0.059367
     56 H14A         2.1440    -2.5530     1.7750 hc         1 SM9       0.059367
     57 H14B         2.9900    -3.8940     2.5580 hc         1 SM9       0.059367
     58 H15          6.1090    -0.0960    -0.2210 hc         1 SM9       0.059367
     59 H15A         7.4380    -1.1480    -0.7260 hc         1 SM9       0.059367
     60 H15B         7.0300    -0.9990     0.9890 hc         1 SM9       0.059367
     61 H17         -2.3650     0.9230    -4.6410 hc         1 SM9       0.049200
     62 H17A        -2.7240     1.7480    -3.1140 hc         1 SM9       0.049200
     63 H18         -1.7790    -1.1260    -3.4240 hc         1 SM9       0.053700
     64 H18A        -3.4090    -0.6030    -2.9640 hc         1 SM9       0.053700
     65 H19         -2.4930     0.4840    -0.9450 h1         1 SM9       0.036200
     66 H19A        -2.0790    -1.2390    -0.9740 h1         1 SM9       0.036200
     67 H21          0.8270     1.6060    -1.9000 h1         1 SM9       0.041200
     68 H21A        -0.8050     2.1290    -1.4500 h1         1 SM9       0.041200
     69 H22         -1.3090     3.3140    -4.1470 hc         1 SM9       0.054700
     70 H22A         0.3600     3.2990    -3.5090 hc         1 SM9       0.054700
     71 H23         -0.6680     2.1710    -6.1580 h1         1 SM9       0.059200
     72 H23A         0.7600     3.2060    -5.8750 h1         1 SM9       0.059200
     73 H25         -0.3810    -0.3440    -4.7380 h1         1 SM9       0.067700
     74 H25A         0.9400    -0.1000    -3.5720 h1         1 SM9       0.067700
     75 H30         -0.5900    -0.9420    -8.7890 h5         1 SM9       0.055100
     76 H32          3.5310     1.1180    -5.2570 ha         1 SM9       0.155000
     77 H33          5.7330     0.5250    -6.1360 ha         1 SM9       0.134000
     78 H34          5.9500    -0.7550    -8.2250 ha         1 SM9       0.134000
     79 H35          3.9730    -1.4660    -9.4690 ha         1 SM9       0.152000
     80 H37          4.7070     2.0570     5.9040 hc         1 SM9       0.046033
     81 H37A         5.4410     3.6640     5.9830 hc         1 SM9       0.046033
     82 H37B         6.2390     2.3720     5.0770 hc         1 SM9       0.046033
     83 H38          4.9310     4.1290     3.7090 h1         1 SM9       0.018200
     84 H38A         3.4720     3.3530     4.3410 h1         1 SM9       0.018200
@<TRIPOS>BOND
     1     2     1 1
     2    20     1 1
     3     1    42 1
     4     1    43 1
     5     4     2 1
     6     2     3 1
     7     2    44 1
     8     5     3 1
     9     3    45 1
    10     3    46 1
    11     4    47 1
    12     6     5 1
    13    39     5 1
    14     6     7 1
    15     6    48 1
    16     6    49 1
    17    36     7 1
    18     7    50 1
    19     7    51 1
    20    13     8 ar
    21     8     9 ar
    22     8    39 1
    23    10     9 ar
    24     9    15 1
    25    11    10 ar
    26    10    52 1
    27    12    11 ar
    28    11    53 1
    29    12    13 ar
    30    12    54 1
    31    14    13 1
    32    14    55 1
    33    14    56 1
    34    14    57 1
    35    15    58 1
    36    15    59 1
    37    15    60 1
    38    25    16 1
    39    22    16 1
    40    16    21 1
    41    16    17 1
    42    17    18 1
    43    17    61 1
    44    17    62 1
    45    18    19 1
    46    18    63 1
    47    18    64 1
    48    20    19 1
    49    19    65 1
    50    19    66 1
    51    21    20 1
    52    21    67 1
    53    21    68 1
    54    23    22 1
    55    22    69 1
    56    22    70 1
    57    24    23 1
    58    23    71 1
    59    23    72 1
    60    26    24 1
    61    24    25 1
    62    25    73 1
    63    25    74 1
    64    31    26 ar
    65    27    26 ar
    66    28    27 ar
    67    27    32 ar
    68    29    28 ar
    69    35    28 ar
    70    29    30 ar
    71    30    31 ar
    72    30    75 1
    73    33    32 ar
    74    32    76 1
    75    34    33 ar
    76    33    77 1
    77    35    34 ar
    78    34    78 1
    79    35    79 1
    80    36    38 1
    81    37    38 1
    82    37    80 1
    83    37    81 1
    84    37    82 1
    85    38    83 1
    86    38    84 1
    87    41    39 2
    88    39    40 2
@<TRIPOS>SUBSTRUCTURE
     1 SM9         1 TEMP              0 ****  ****    0 ROOT
