@<TRIPOS>MOLECULE
molecule
   79    80     1     0     0
SMALL
bcc


@<TRIPOS>ATOM
      1 C2           0.0000     0.0000     0.0000 cc         1 SMA       0.128900
      2 C3           1.3440     0.0000     0.0000 cd         1 SMA      -0.287400
      3 C3M          2.1030     0.0010    -1.3020 c3         1 SMA      -0.028900
      4 C4           2.0460     0.0000     1.2360 c          1 SMA       0.595900
      5 C4A          1.2400    -0.0000     2.4690 ca         1 SMA      -0.289600
      6 C5           1.8410    -0.0010     3.7330 ca         1 SMA       0.255100
      7 C5M          3.7330     0.0010     5.1710 c3         1 SMA       0.122700
      8 C6           1.0470    -0.0010     4.8640 ca         1 SMA      -0.350000
      9 C7          -0.3390    -0.0000     4.7470 ca         1 SMA       0.204100
     10 C7M         -0.4270    -0.0010     7.1230 c3         1 SMA       0.126700
     11 C8          -0.9430    -0.0020     3.4970 ca         1 SMA       0.001100
     12 C8A         -0.1600    -0.0020     2.3490 ca         1 SMA       0.205100
     13 C9          -0.7210    -0.0010    -1.3240 c3         1 SMA      -0.035200
     14 C10         -1.0750    -1.4380    -1.7120 c3         1 SMA      -0.074400
     15 C11         -1.8060    -1.4380    -3.0560 c3         1 SMA      -0.084700
     16 C12         -2.0490    -2.8800    -3.5040 c3         1 SMA       0.151100
     17 C13         -2.7140    -2.8810    -4.8820 c3         1 SMA      -0.098700
     18 C14         -1.7520    -2.2860    -5.9130 c3         1 SMA       0.187300
     19 C15         -2.4610    -2.1390    -7.2350 c2         1 SMA      -0.168200
     20 C16         -2.5850    -0.9340    -7.7930 ce         1 SMA      -0.138000
     21 C17         -3.2740    -0.7910    -9.0780 ce         1 SMA      -0.137000
     22 C18         -3.4000     0.4280    -9.6440 cf         1 SMA      -0.120000
     23 C19         -4.0880     0.5710   -10.9280 cf         1 SMA      -0.103200
     24 C20         -4.2120     1.7750   -11.4870 c2         1 SMA      -0.163200
     25 C21         -4.9210     1.9230   -12.8090 c3         1 SMA      -0.058900
     26 C22         -3.1470    -0.7170    -2.9070 c3         1 SMA      -0.097100
     27 C24         -3.0630    -4.3170    -5.2790 c3         1 SMA      -0.085100
     28 C26         -4.6570    -0.6410   -11.6180 c3         1 SMA      -0.055900
     29 O1          -0.7250    -0.0070     1.1230 os         1 SMA      -0.195200
     30 O4           3.2650     0.0000     1.2740 o          1 SMA      -0.532100
     31 O5           3.1950    -0.0000     3.8480 os         1 SMA      -0.278900
     32 O7          -1.1080    -0.0010     5.8670 os         1 SMA      -0.308900
     33 O8          -2.3000    -0.0010     3.3970 oh         1 SMA      -0.488100
     34 O12         -0.8010    -3.5730    -3.5770 os         1 SMA      -0.416600
     35 O14         -0.6270    -3.1520    -6.0700 os         1 SMA      -0.407600
     36 H1           1.9260    -0.9320    -1.8240 hc         1 SMA       0.048700
     37 H2           3.1620     0.1070    -1.1020 hc         1 SMA       0.048700
     38 H3           1.7660     0.8270    -1.9150 hc         1 SMA       0.048700
     39 H4           3.4000     0.8870     5.6970 h1         1 SMA       0.043700
     40 H5           3.3940    -0.8820     5.7000 h1         1 SMA       0.043700
     41 H6           4.8160    -0.0030     5.1200 h1         1 SMA       0.043700
     42 H7           1.5060     0.0000     5.8460 ha         1 SMA       0.150000
     43 H8           0.1930     0.8840     7.1970 h1         1 SMA       0.045367
     44 H9          -1.1520    -0.0030     7.9270 h1         1 SMA       0.045367
     45 H10          0.1950    -0.8850     7.1960 h1         1 SMA       0.045367
     46 H11         -0.0810     0.4300    -2.0840 hc         1 SMA       0.071200
     47 H12         -1.6290     0.5850    -1.2420 hc         1 SMA       0.071200
     48 H13         -0.1670    -2.0230    -1.7940 hc         1 SMA       0.057700
     49 H14         -1.7160    -1.8690    -0.9520 hc         1 SMA       0.057700
     50 H15         -1.2020    -0.9270    -3.7960 hc         1 SMA       0.058700
     51 H16         -2.6960    -3.3760    -2.7910 h1         1 SMA       0.043700
     52 H17         -3.6190    -2.2860    -4.8470 hc         1 SMA       0.062700
     53 H18         -1.4150    -1.3140    -5.5740 h1         1 SMA       0.041700
     54 H19         -2.8690    -3.0110    -7.7320 ha         1 SMA       0.137000
     55 H21         -2.1770    -0.0620    -7.2960 ha         1 SMA       0.123000
     56 H22         -3.6820    -1.6630    -9.5740 ha         1 SMA       0.133000
     57 H23         -2.9920     1.3000    -9.1470 ha         1 SMA       0.128000
     58 H25         -3.8030     2.6470   -10.9910 ha         1 SMA       0.126000
     59 H26         -4.4190     1.3230   -13.5580 hc         1 SMA       0.041700
     60 H27         -4.9080     2.9630   -13.1110 hc         1 SMA       0.041700
     61 H28         -5.9470     1.5890   -12.7070 hc         1 SMA       0.041700
     62 H29         -3.2010     0.0970    -3.6190 hc         1 SMA       0.040367
     63 H30         -3.9550    -1.4150    -3.0940 hc         1 SMA       0.040367
     64 H31         -3.2350    -0.3240    -1.9010 hc         1 SMA       0.040367
     65 H32         -1.7170    -4.9650    -2.3630 h1         1 SMA       0.030033
     66 H33          0.0510    -4.9450    -2.2960 h1         1 SMA       0.030033
     67 H34         -0.7740    -5.6300    -3.7040 h1         1 SMA       0.030033
     68 H35         -3.8150    -4.3030    -6.0590 hc         1 SMA       0.040367
     69 H36         -3.4480    -4.8460    -4.4160 hc         1 SMA       0.040367
     70 H37         -2.1740    -4.8170    -5.6430 hc         1 SMA       0.040367
     71 H38          1.2420    -3.2470    -5.2060 h1         1 SMA       0.027367
     72 H39          1.1300    -2.2550    -6.6660 h1         1 SMA       0.027367
     73 H40          0.4550    -1.6640    -5.1410 h1         1 SMA       0.027367
     74 H41         -5.3250    -1.1610   -10.9420 hc         1 SMA       0.043700
     75 H42         -5.2040    -0.3320   -12.5000 hc         1 SMA       0.043700
     76 H43         -3.8500    -1.3040   -11.9080 hc         1 SMA       0.043700
     77 H44         -2.6200    -0.8860     3.4590 ho         1 SMA       0.410000
     78 C23         -0.8110    -4.8560    -2.9470 c3         1 SMA       0.127700
     79 C25          0.6260    -2.5430    -5.7510 c3         1 SMA       0.140700
@<TRIPOS>BOND
     1    10    32 1
     2    32     9 1
     3    33    11 1
     4     9    11 ar
     5     9     8 ar
     6    11    12 ar
     7     8     6 ar
     8    12    29 1
     9    12     5 ar
    10    29     1 1
    11    26    15 1
    12    13     1 1
    13    13    14 1
    14     6     5 ar
    15     6    31 1
    16     5     4 1
    17     1     2 2
    18     7    31 1
    19     2     4 1
    20     2     3 1
    21     4    30 2
    22    15    14 1
    23    15    16 1
    24    27    17 1
    25    16    17 1
    26    16    34 1
    27    17    18 1
    28    34    78 1
    29    35    79 1
    30    35    18 1
    31    18    19 1
    32    19    20 2
    33    20    21 1
    34    21    22 2
    35    22    23 1
    36    24    23 2
    37    24    25 1
    38    23    28 1
    39     3    36 1
    40     3    37 1
    41     3    38 1
    42     7    39 1
    43     7    40 1
    44     7    41 1
    45     8    42 1
    46    10    43 1
    47    10    44 1
    48    10    45 1
    49    13    46 1
    50    13    47 1
    51    14    48 1
    52    14    49 1
    53    15    50 1
    54    16    51 1
    55    17    52 1
    56    18    53 1
    57    19    54 1
    58    20    55 1
    59    21    56 1
    60    22    57 1
    61    24    58 1
    62    25    59 1
    63    25    60 1
    64    25    61 1
    65    26    62 1
    66    26    63 1
    67    26    64 1
    68    78    65 1
    69    78    66 1
    70    78    67 1
    71    27    68 1
    72    27    69 1
    73    27    70 1
    74    79    71 1
    75    79    72 1
    76    79    73 1
    77    28    74 1
    78    28    75 1
    79    28    76 1
    80    33    77 1
@<TRIPOS>SUBSTRUCTURE
     1 SMA         1 TEMP              0 ****  ****    0 ROOT
