@<TRIPOS>MOLECULE
SMA
   79    80     1     0     0
SMALL
bcc


@<TRIPOS>ATOM
      1 C2         -0.2720    0.1980   -0.8690 cc        1 SMA      0.117900
      2 C3          1.0630    0.3450   -1.0410 cd        1 SMA     -0.257400
      3 C3M         1.6770    0.3040   -2.3890 c3        1 SMA     -0.043900
      4 C4          1.9590    0.5590    0.1090 c         1 SMA      0.598900
      5 C4A         1.2800    0.5940    1.4120 ca        1 SMA     -0.244600
      6 C5          1.9840    0.7880    2.6260 ca        1 SMA      0.208100
      7 C5M         4.0850    1.1330    3.6960 c3        1 SMA      0.106700
      8 C6          1.3200    0.8180    3.8570 ca        1 SMA     -0.287000
      9 C7         -0.0690    0.6500    3.8900 ca        1 SMA      0.127100
     10 C7M        -0.1380    0.9290    6.2570 c3        1 SMA      0.120700
     11 C8         -0.8050    0.4560    2.7070 ca        1 SMA      0.037100
     12 C8A        -0.1130    0.4310    1.4770 ca        1 SMA      0.173100
     13 C9         -1.2840   -0.0150   -1.9470 c3        1 SMA     -0.039200
     14 C10        -1.4840   -1.4920   -2.2260 c3        1 SMA     -0.076400
     15 C11        -2.5230   -1.7210   -3.3180 c3        1 SMA     -0.069700
     16 C12        -2.3000   -3.1030   -3.9650 c3        1 SMA      0.146100
     17 C13        -3.3400   -3.4010   -5.0610 c3        1 SMA     -0.070700
     18 C14        -2.7350   -4.0120   -6.3370 c3        1 SMA      0.169300
     19 C15        -3.6590   -3.8340   -7.5000 c2        1 SMA     -0.189200
     20 C16        -3.8340   -2.6900   -8.1770 ce        1 SMA     -0.129000
     21 C17        -3.1580   -1.4440   -7.8870 ce        1 SMA     -0.143000
     22 C18        -3.4380   -0.2990   -8.5330 cf        1 SMA     -0.114000
     23 C19        -2.7910    0.9790   -8.2710 cf        1 SMA     -0.092200
     24 C20        -3.1230    2.0600   -9.0060 c2        1 SMA     -0.154200
     25 C21        -2.5430    3.4050   -8.8420 c3        1 SMA     -0.064900
     26 C22        -3.9190   -1.5930   -2.7490 c3        1 SMA     -0.095100
     27 C24        -4.4380   -4.2950   -4.5220 c3        1 SMA     -0.089100
     28 C26        -1.7790    1.0240   -7.1870 c3        1 SMA     -0.060900
     29 O1         -0.9050    0.2390    0.3630 os        1 SMA     -0.197200
     30 O4          3.1830    0.6950   -0.0210 o         1 SMA     -0.528100
     31 O5          3.3430    0.9420    2.4950 os        1 SMA     -0.279900
     32 O7         -0.8300    0.6560    5.0430 os        1 SMA     -0.340900
     33 O8         -2.1680    0.2700    2.6760 oh        1 SMA     -0.476100
     34 O12        -0.9810   -3.0570   -4.5250 os        1 SMA     -0.431600
     35 O14        -2.5220   -5.4080   -6.0840 os        1 SMA     -0.424600
     36 H1          1.3960    1.2190   -2.9700 hc        1 SMA      0.052033
     37 H2          2.7930    0.2670   -2.3090 hc        1 SMA      0.052033
     38 H3          1.3290   -0.5940   -2.9570 hc        1 SMA      0.052033
     39 H4          5.1390    1.2250    3.3280 h1        1 SMA      0.047700
     40 H5          3.7650    2.0680    4.2150 h1        1 SMA      0.047700
     41 H6          3.9800    0.2500    4.3720 h1        1 SMA      0.047700
     42 H7          1.8780    0.9700    4.7900 ha        1 SMA      0.150000
     43 H8          0.6130    0.1290    6.4660 h1        1 SMA      0.049367
     44 H9          0.3530    1.9310    6.2150 h1        1 SMA      0.049367
     45 H10        -0.9530    0.9170    7.0250 h1        1 SMA      0.049367
     46 H11        -2.2570    0.4510   -1.6350 hc        1 SMA      0.070700
     47 H12        -0.9280    0.5090   -2.8740 hc        1 SMA      0.070700
     48 H13        -0.5040   -1.9400   -2.5450 hc        1 SMA      0.057200
     49 H14        -1.8040   -2.0100   -1.2840 hc        1 SMA      0.057200
     50 H15        -2.3780   -0.9460   -4.1230 hc        1 SMA      0.057700
     51 H16        -2.3580   -3.8960   -3.1690 h1        1 SMA      0.051700
     52 H17        -3.7900   -2.4180   -5.3860 hc        1 SMA      0.063700
     53 H18        -1.7400   -3.5250   -6.5580 h1        1 SMA      0.070700
     54 H19        -4.2210   -4.7410   -7.7810 ha        1 SMA      0.134000
     55 H21        -4.5450   -2.6660   -9.0230 ha        1 SMA      0.122000
     56 H22        -2.3900   -1.4760   -7.0930 ha        1 SMA      0.134000
     57 H23        -4.2090   -0.2850   -9.3250 ha        1 SMA      0.120000
     58 H25        -3.8830    1.9670   -9.8000 ha        1 SMA      0.119000
     59 H26        -2.9700    4.1150   -9.5920 hc        1 SMA      0.043033
     60 H27        -2.7560    3.8080   -7.8190 hc        1 SMA      0.043033
     61 H28        -1.4320    3.3800   -8.9800 hc        1 SMA      0.043033
     62 H29        -4.1300   -2.4220   -2.0310 hc        1 SMA      0.039367
     63 H30        -4.0240   -0.6230   -2.2030 hc        1 SMA      0.039367
     64 H31        -4.6850   -1.6190   -3.5610 hc        1 SMA      0.039367
     65 H32         0.7790   -4.0050   -4.7480 h1        1 SMA      0.038033
     66 H33        -0.0420   -4.3040   -3.1320 h1        1 SMA      0.038033
     67 H34        -0.6800   -5.1240   -4.6460 h1        1 SMA      0.038033
     68 H35        -4.0210   -5.2860   -4.2190 hc        1 SMA      0.041033
     69 H36        -4.9310   -3.8280   -3.6370 hc        1 SMA      0.041033
     70 H37        -5.2050   -4.4670   -5.3150 hc        1 SMA      0.041033
     71 H38        -2.1310   -5.9310   -8.0740 h1        1 SMA      0.033367
     72 H39        -0.6670   -5.5730   -7.0350 h1        1 SMA      0.033367
     73 H40        -1.6490   -7.0990   -6.7390 h1        1 SMA      0.033367
     74 H41        -1.3930    2.0590   -7.0240 hc        1 SMA      0.043700
     75 H42        -2.2230    0.6600   -6.2260 hc        1 SMA      0.043700
     76 H43        -0.9130    0.3630   -7.4430 hc        1 SMA      0.043700
     77 H44        -2.5020    0.4130    3.5750 ho        1 SMA      0.432000
     78 C23        -0.1960   -4.2020   -4.2350 c3        1 SMA      0.109700
     79 C25        -1.6900   -6.0260   -7.0510 c3        1 SMA      0.113700
@<TRIPOS>BOND
     1    1    2 2   
     2    1   13 1   
     3    1   29 1   
     4    2    3 1   
     5    2    4 1   
     6    3   36 1   
     7    3   37 1   
     8    3   38 1   
     9    4    5 1   
    10    4   30 2   
    11    5    6 ar  
    12    5   12 ar  
    13    6    8 ar  
    14    6   31 1   
    15    7   31 1   
    16    7   39 1   
    17    7   40 1   
    18    7   41 1   
    19    8    9 ar  
    20    8   42 1   
    21    9   11 ar  
    22    9   32 1   
    23   10   32 1   
    24   10   43 1   
    25   10   44 1   
    26   10   45 1   
    27   11   12 ar  
    28   11   33 1   
    29   12   29 1   
    30   13   14 1   
    31   13   46 1   
    32   13   47 1   
    33   14   15 1   
    34   14   48 1   
    35   14   49 1   
    36   15   16 1   
    37   15   26 1   
    38   15   50 1   
    39   16   17 1   
    40   16   34 1   
    41   16   51 1   
    42   17   18 1   
    43   17   27 1   
    44   17   52 1   
    45   18   19 1   
    46   18   35 1   
    47   18   53 1   
    48   19   20 2   
    49   19   54 1   
    50   20   21 1   
    51   20   55 1   
    52   21   22 2   
    53   21   56 1   
    54   22   23 1   
    55   22   57 1   
    56   23   24 2   
    57   23   28 1   
    58   24   25 1   
    59   24   58 1   
    60   25   59 1   
    61   25   60 1   
    62   25   61 1   
    63   26   62 1   
    64   26   63 1   
    65   26   64 1   
    66   27   68 1   
    67   27   69 1   
    68   27   70 1   
    69   28   74 1   
    70   28   75 1   
    71   28   76 1   
    72   33   77 1   
    73   34   78 1   
    74   35   79 1   
    75   65   78 1   
    76   66   78 1   
    77   67   78 1   
    78   71   79 1   
    79   72   79 1   
    80   73   79 1   
@<TRIPOS>SUBSTRUCTURE
     1 SMA         1 TEMP              0 ****  ****    0 ROOT
