@<TRIPOS>MOLECULE
SMB
   16    15     1     0     0
SMALL
bcc


@<TRIPOS>ATOM
      1 C1         -0.0140   -0.1410   -0.0270 c3        1 SMB     -0.085100
      2 C2          1.4770    0.0780    0.0230 c3        1 SMB     -0.068400
      3 C3          2.0220    0.0960    1.4370 c3        1 SMB     -0.186700
      4 C4          1.7140    1.3950    2.1420 c3        1 SMB     -0.064100
      5 C5          3.5500   -0.1690    1.4620 c         1 SMB      0.912600
      6 O1          4.1460   -0.0330    2.5700 o         1 SMB     -0.849800
      7 O2          4.1280   -0.5330    0.3990 o         1 SMB     -0.849800
      8 H11        -0.3750   -0.1440   -1.0850 hc        1 SMB      0.009700
      9 H12        -0.5530    0.6660    0.5250 hc        1 SMB      0.009700
     10 H13        -0.2840   -1.1200    0.4370 hc        1 SMB      0.009700
     11 H21         2.0020   -0.7370   -0.5460 hc        1 SMB      0.045700
     12 H22         1.7330    1.0440   -0.4860 hc        1 SMB      0.045700
     13 H3          1.5550   -0.7480    2.0160 hc        1 SMB      0.027700
     14 H41         2.0930    2.2630    1.5500 hc        1 SMB      0.014700
     15 H42         0.6130    1.5240    2.2870 hc        1 SMB      0.014700
     16 H43         2.2180    1.4030    3.1390 hc        1 SMB      0.014700
@<TRIPOS>BOND
     1    1    2 1   
     2    1    8 1   
     3    1    9 1   
     4    1   10 1   
     5    2    3 1   
     6    2   11 1   
     7    2   12 1   
     8    3    4 1   
     9    3    5 1   
    10    3   13 1   
    11    4   14 1   
    12    4   15 1   
    13    4   16 1   
    14    5    6 1   
    15    5    7 1   
@<TRIPOS>SUBSTRUCTURE
     1 SMB         1 TEMP              0 ****  ****    0 ROOT
