@<TRIPOS>MOLECULE
molecule
   16    15     1     0     0
SMALL
bcc


@<TRIPOS>ATOM
      1 C1           0.0000     0.0000     0.0000 c3         1 SMB      -0.097100
      2 C2           1.5300     0.0000     0.0000 c3         1 SMB      -0.062400
      3 C3           2.0400     0.0000     1.4430 c3         1 SMB      -0.173700
      4 C4           1.6350     1.3080     2.1270 c3         1 SMB      -0.068100
      5 C5           3.5420    -0.1240     1.4440 c          1 SMB       0.895600
      6 O1           4.2120    -0.1460     2.6080 o          1 SMB      -0.855800
      7 O2           4.1430    -0.2040     0.4000 o          1 SMB      -0.855800
      8 H11         -0.3610    -0.6380     0.7970 hc         1 SMB       0.013367
      9 H12         -0.3610     1.0100     0.1540 hc         1 SMB       0.013367
     10 H13         -0.3610    -0.3710    -0.9510 hc         1 SMB       0.013367
     11 H21          1.8910    -0.8850    -0.5110 hc         1 SMB       0.043200
     12 H22          1.8910     0.8840    -0.5110 hc         1 SMB       0.043200
     13 H3           1.6080    -0.8370     1.9790 hc         1 SMB       0.036700
     14 H41          1.8290     2.1390     1.4610 hc         1 SMB       0.018367
     15 H42          2.2100     1.4320     3.0370 hc         1 SMB       0.018367
     16 H43          0.5790     1.2770     2.3690 hc         1 SMB       0.018367
@<TRIPOS>BOND
     1     1     2 1
     2     1     8 1
     3     1     9 1
     4     1    10 1
     5     2     3 1
     6     2    11 1
     7     2    12 1
     8     3     4 1
     9     3     5 1
    10     3    13 1
    11     4    14 1
    12     4    15 1
    13     4    16 1
    14     5     6 1
    15     5     7 1
@<TRIPOS>SUBSTRUCTURE
     1 SMB         1 TEMP              0 ****  ****    0 ROOT
