@<TRIPOS>MOLECULE
molecule
   48    49     1     0     0
SMALL
bcc


@<TRIPOS>ATOM
      1 O12          0.0000     0.0000     0.0000 oh         1 SMD      -0.585800
      2 C12          1.4290     0.0000     0.0000 c3         1 SMD       0.132100
      3 C13          1.9420     0.0000     1.4440 c3         1 SMD       0.116100
      4 O13          1.3560    -1.0850     2.1660 oh         1 SMD      -0.598800
      5 C14          3.4670    -0.1600     1.4220 c3         1 SMD       0.106100
      6 O14          4.0610     0.9940     0.8260 oh         1 SMD      -0.581800
      7 C15          3.8250    -1.4020     0.6030 c3         1 SMD       0.118100
      8 C16          3.1610    -2.6300     1.2270 c3         1 SMD       0.092400
      9 O16          3.5620    -3.8030     0.5160 oh         1 SMD      -0.610800
     10 O15          3.3660    -1.2460    -0.7380 os         1 SMD      -0.359600
     11 C11          1.9400    -1.2550    -0.7110 c3         1 SMD       0.191200
     12 S22          1.3060    -1.2870    -2.4100 ss         1 SMD      -0.234200
     13 C22          1.7820    -2.9700    -2.8920 c3         1 SMD      -0.019600
     14 C21          3.3080    -3.0820    -2.9240 c3         1 SMD       0.303900
     15 O21          3.6790    -4.4000    -3.3330 os         1 SMD      -0.436600
     16 C27          5.0860    -4.5200    -3.1150 c3         1 SMD       0.113700
     17 O25          3.8430    -2.1320    -3.8430 os         1 SMD      -0.381600
     18 C23          1.2290    -3.2790    -4.2860 c3         1 SMD       0.148100
     19 O23         -0.1790    -3.0340    -4.3120 oh         1 SMD      -0.597800
     20 C24          1.9280    -2.3710    -5.3030 c3         1 SMD       0.111100
     21 O24          1.5370    -2.7420    -6.6270 oh         1 SMD      -0.605800
     22 C25          3.4430    -2.5280    -5.1540 c3         1 SMD       0.126100
     23 C26          4.1490    -1.6490    -6.1880 c3         1 SMD       0.149400
     24 O26          5.5570    -1.8860    -6.1340 oh         1 SMD      -0.604800
     25 H5          -0.3140     0.8350    -0.3050 ho         1 SMD       0.406000
     26 H12          1.7970     0.8800    -0.5130 h1         1 SMD       0.075700
     27 H13          1.6840     0.9390     1.9190 h1         1 SMD       0.046700
     28 H4           0.9120    -0.7520     2.9290 ho         1 SMD       0.407000
     29 H14          3.8310    -0.2780     2.4360 h1         1 SMD       0.042700
     30 H3           4.5950     1.4380     1.4640 ho         1 SMD       0.404000
     31 H15          4.9000    -1.5310     0.6010 h1         1 SMD       0.089700
     32 H161         2.0840    -2.5260     1.1730 h1         1 SMD       0.058200
     33 H162         3.4630    -2.7160     2.2640 h1         1 SMD       0.058200
     34 H16          3.6750    -4.5160     1.1220 ho         1 SMD       0.405000
     35 H11          1.5980    -2.1330    -0.1770 h2         1 SMD       0.090700
     36 H22          1.3840    -3.6820    -2.1800 h1         1 SMD       0.088700
     37 H21          3.7020    -2.8830    -1.9350 h2         1 SMD       0.118700
     38 H271         5.2650    -5.1070    -2.2230 h1         1 SMD       0.040033
     39 H272         5.5440    -5.0080    -3.9670 h1         1 SMD       0.040033
     40 H273         5.5180    -3.5340    -2.9900 h1         1 SMD       0.040033
     41 H23          1.4260    -4.3160    -4.5310 h1         1 SMD       0.071700
     42 H2          -0.6390    -3.8500    -4.4140 ho         1 SMD       0.406000
     43 H24          1.6530    -1.3400    -5.1150 h1         1 SMD       0.066700
     44 H1           0.9360    -2.1020    -6.9690 ho         1 SMD       0.410000
     45 H25          3.7120    -3.5650    -5.3120 h1         1 SMD       0.080700
     46 H261         3.9500    -0.6060    -5.9730 h1         1 SMD       0.033700
     47 H262         3.7800    -1.8890    -7.1780 h1         1 SMD       0.033700
     48 H26          5.9780    -1.4450    -6.8530 ho         1 SMD       0.399000
@<TRIPOS>BOND
     1     1     2 1
     2     1    25 1
     3     2     3 1
     4     2    11 1
     5     2    26 1
     6     3     4 1
     7     3     5 1
     8     3    27 1
     9     4    28 1
    10     5     6 1
    11     5     7 1
    12     5    29 1
    13     6    30 1
    14     7     8 1
    15     7    10 1
    16     7    31 1
    17     8     9 1
    18     8    32 1
    19     8    33 1
    20     9    34 1
    21    10    11 1
    22    11    12 1
    23    11    35 1
    24    12    13 1
    25    13    14 1
    26    13    18 1
    27    13    36 1
    28    14    15 1
    29    14    17 1
    30    14    37 1
    31    15    16 1
    32    16    38 1
    33    16    39 1
    34    16    40 1
    35    17    22 1
    36    18    19 1
    37    18    20 1
    38    18    41 1
    39    19    42 1
    40    20    21 1
    41    20    22 1
    42    20    43 1
    43    21    44 1
    44    22    23 1
    45    22    45 1
    46    23    24 1
    47    23    46 1
    48    23    47 1
    49    24    48 1
@<TRIPOS>SUBSTRUCTURE
     1 SMD         1 TEMP              0 ****  ****    0 ROOT
