@<TRIPOS>MOLECULE
SMD
   48    49     1     0     0
SMALL
bcc


@<TRIPOS>ATOM
      1 O12        -0.1770   -0.4410    0.2530 oh        1 SMD     -0.604800
      2 C12         1.2080   -0.1510    0.1540 c3        1 SMD      0.091100
      3 C13         1.7330   -0.1380    1.6030 c3        1 SMD      0.120100
      4 O13         1.3180   -1.2920    2.3120 oh        1 SMD     -0.604800
      5 C14         3.2730   -0.1050    1.6550 c3        1 SMD      0.118100
      6 O14         3.7270    1.2130    1.4200 oh        1 SMD     -0.584800
      7 C15         3.9290   -1.0820    0.6680 c3        1 SMD      0.098100
      8 C16         3.8960   -2.5090    1.2170 c3        1 SMD      0.098400
      9 O16         4.3110   -3.3730    0.1700 oh        1 SMD     -0.603800
     10 O15         3.3480   -0.9730   -0.6270 os        1 SMD     -0.385600
     11 C11         1.9470   -1.2070   -0.6720 c3        1 SMD      0.164200
     12 S22         1.4740   -1.0500   -2.3840 ss        1 SMD     -0.238200
     13 C22         1.8020   -2.6880   -3.0100 c3        1 SMD     -0.044600
     14 C21         3.3050   -3.0000   -3.0340 c3        1 SMD      0.327900
     15 O21         3.4280   -4.4020   -3.2220 os        1 SMD     -0.456600
     16 C27         4.7140   -4.9050   -2.8860 c3        1 SMD      0.121700
     17 O25         4.0260   -2.3980   -4.0850 os        1 SMD     -0.433600
     18 C23         1.2160   -2.8710   -4.4070 c3        1 SMD      0.116100
     19 O23        -0.1240   -2.4280   -4.5300 oh        1 SMD     -0.596800
     20 C24         2.0330   -2.0810   -5.4470 c3        1 SMD      0.127100
     21 O24         1.5480   -2.3290   -6.7540 oh        1 SMD     -0.593800
     22 C25         3.4850   -2.5790   -5.3970 c3        1 SMD      0.103100
     23 C26         4.3800   -1.7600   -6.3290 c3        1 SMD      0.141400
     24 O26         5.6940   -2.2730   -6.3580 oh        1 SMD     -0.597800
     25 H5         -0.5130   -0.5170   -0.6520 ho        1 SMD      0.427000
     26 H12         1.3590    0.8650   -0.3070 h1        1 SMD      0.065700
     27 H13         1.3320    0.7830    2.1150 h1        1 SMD      0.069700
     28 H4          0.3530   -1.3270    2.2470 ho        1 SMD      0.429000
     29 H14         3.6050   -0.3410    2.7070 h1        1 SMD      0.101700
     30 H3          3.5850    1.4020    0.4820 ho        1 SMD      0.411000
     31 H15         4.9990   -0.7720    0.4800 h1        1 SMD      0.104700
     32 H161        2.8600   -2.7840    1.5560 h1        1 SMD      0.047200
     33 H162        4.6010   -2.5840    2.0870 h1        1 SMD      0.047200
     34 H16         4.3510   -4.2600    0.5490 ho        1 SMD      0.405000
     35 H11         1.7160   -2.2340   -0.2830 h2        1 SMD      0.080700
     36 H22         1.3190   -3.4280   -2.3180 h1        1 SMD      0.084700
     37 H21         3.8220   -2.6470   -2.0890 h2        1 SMD      0.128700
     38 H271        4.9280   -4.7200   -1.8030 h1        1 SMD      0.040700
     39 H272        4.6480   -6.0000   -3.1000 h1        1 SMD      0.040700
     40 H273        5.4960   -4.4210   -3.5210 h1        1 SMD      0.040700
     41 H23         1.2720   -3.9720   -4.6570 h1        1 SMD      0.074700
     42 H2         -0.6470   -2.9250   -3.8900 ho        1 SMD      0.411000
     43 H24         1.9780   -0.9810   -5.2160 h1        1 SMD      0.068700
     44 H1          0.6070   -2.1080   -6.7420 ho        1 SMD      0.423000
     45 H25         3.5290   -3.6700   -5.6650 h1        1 SMD      0.077700
     46 H261        3.9960   -1.8510   -7.3800 h1        1 SMD      0.062200
     47 H262        4.3880   -0.6850   -6.0070 h1        1 SMD      0.062200
     48 H26         6.0230   -2.2580   -5.4500 ho        1 SMD      0.409000
@<TRIPOS>BOND
     1    1    2 1   
     2    1   25 1   
     3    2    3 1   
     4    2   11 1   
     5    2   26 1   
     6    3    4 1   
     7    3    5 1   
     8    3   27 1   
     9    4   28 1   
    10    5    6 1   
    11    5    7 1   
    12    5   29 1   
    13    6   30 1   
    14    7    8 1   
    15    7   10 1   
    16    7   31 1   
    17    8    9 1   
    18    8   32 1   
    19    8   33 1   
    20    9   34 1   
    21   10   11 1   
    22   11   12 1   
    23   11   35 1   
    24   12   13 1   
    25   13   14 1   
    26   13   18 1   
    27   13   36 1   
    28   14   15 1   
    29   14   17 1   
    30   14   37 1   
    31   15   16 1   
    32   16   38 1   
    33   16   39 1   
    34   16   40 1   
    35   17   22 1   
    36   18   19 1   
    37   18   20 1   
    38   18   41 1   
    39   19   42 1   
    40   20   21 1   
    41   20   22 1   
    42   20   43 1   
    43   21   44 1   
    44   22   23 1   
    45   22   45 1   
    46   23   24 1   
    47   23   46 1   
    48   23   47 1   
    49   24   48 1   
@<TRIPOS>SUBSTRUCTURE
     1 SMD         1 TEMP              0 ****  ****    0 ROOT
