@<TRIPOS>MOLECULE
SMG
   29    28     1     0     0
SMALL
bcc


@<TRIPOS>ATOM
      1 O61          0.0000     0.0000     0.0000 o          1 SMG      -0.924300
      2 O62          1.9450    -0.0020    -1.0470 o          1 SMG      -0.924300
      3 C6           1.3420     0.0000     0.0000 c          1 SMG       0.981600
      4 C5           2.0960     0.0000     1.3040 c3         1 SMG      -0.117400
      5 C4           3.6000     0.0000     1.0240 c3         1 SMG      -0.084400
      6 O31          3.7490     0.0020     3.3780 o          1 SMG      -0.681100
      7 C3           4.3550     0.0010     2.3280 c          1 SMG       0.563100
      8 N1           5.7010     0.0010     2.3280 ns         1 SMG      -0.161900
      9 C2           6.6850    -1.4190     4.0320 c          1 SMG       0.979600
     10 C1           6.4350     0.0010     3.5950 c3         1 SMG      -0.097300
     11 CB           7.7710     0.7220     3.4120 c3         1 SMG      -0.008400
     12 CG           7.5170     2.1640     2.9690 c3         1 SMG       0.089700
     13 SD           9.1020     3.0190     2.7510 ss         1 SMG      -0.441200
     14 CE           8.5100     4.6550     2.2410 c3         1 SMG       0.099000
     15 H51          1.8350     0.8840     1.8720 hc         1 SMG       0.019200
     16 H52          1.8350    -0.8850     1.8720 hc         1 SMG       0.019200
     17 H41          3.8620     0.8840     0.4550 hc         1 SMG       0.027200
     18 H42          3.8620    -0.8850     0.4570 hc         1 SMG       0.027200
     19 HN1          6.2010    -0.0260     1.4610 hn         1 SMG       0.162500
     20 H1           5.8510     0.5130     4.3500 h1         1 SMG       0.052700
     21 HB1          8.3570     0.2110     2.6570 hc         1 SMG       0.031700
     22 HB2          8.3130     0.7220     4.3500 hc         1 SMG       0.031700
     23 HG1          6.9750     2.1630     2.0310 h1         1 SMG       0.037700
     24 HG2          6.9320     2.6750     3.7240 h1         1 SMG       0.037700
     25 HE1          7.8210     5.0380     2.9840 h1         1 SMG       0.023033
     26 HE2          9.3520     5.3310     2.1470 h1         1 SMG       0.023033
     27 HE3          8.0040     4.5750     1.2860 h1         1 SMG       0.023033
     28 O11          6.7610    -1.6860     5.2070 o          1 SMG      -0.894800
     29 O12          6.8250    -2.3880     3.1140 o          1 SMG      -0.894800
@<TRIPOS>BOND
     1     1     3 1   
     2     2     3 1   
     3     3     4 1   
     4     4     5 1   
     5     4    15 1   
     6     4    16 1   
     7     5     7 1   
     8     5    17 1   
     9     5    18 1   
    10     6     7 2   
    11     7     8 1   
    12     8    10 1   
    13     8    19 1   
    14     9    10 1   
    15     9    28 1   
    16     9    29 1   
    17    10    11 1   
    18    10    20 1   
    19    11    12 1   
    20    11    21 1   
    21    11    22 1   
    22    12    13 1   
    23    12    23 1   
    24    12    24 1   
    25    13    14 1   
    26    14    25 1   
    27    14    26 1   
    28    14    27 1   
@<TRIPOS>SUBSTRUCTURE
     1 SMG         1 TEMP              0 ****  ****    0 ROOT
