@<TRIPOS>MOLECULE
SMH
   76    79     1     0     0
SMALL
bcc


@<TRIPOS>ATOM
      1 C1           0.0000     0.0000     0.0000 ca         1 SMH       0.066100
      2 C2           1.3910     0.0000     0.0000 ca         1 SMH      -0.065000
      3 C3           2.0950     0.0000     1.1870 ca         1 SMH      -0.129000
      4 C4           1.4190     0.0020     2.3990 ca         1 SMH       0.190100
      5 C5           0.0150     0.0090     2.4020 ca         1 SMH      -0.267600
      6 C6          -0.6920     0.0040     1.1980 ca         1 SMH      -0.040000
      7 O7           2.1140    -0.0040     3.5610 os         1 SMH      -0.282900
      8 C8           1.4760     0.4780     4.7420 c3         1 SMH       0.173800
      9 C9           0.1360    -0.2470     4.9310 c3         1 SMH      -0.154400
     10 C10         -0.6990     0.0250     3.6920 c          1 SMH       0.638700
     11 C11          1.2250     1.9810     4.6160 c3         1 SMH       0.106800
     12 N12          2.5060     2.6820     4.4660 n3         1 SMH      -0.524600
     13 C13          3.3620     2.4820     5.6430 c3         1 SMH       0.152800
     14 C14          3.6770     0.9930     5.7980 c3         1 SMH      -0.025400
     15 C15          2.3690     0.2120     5.9570 c3         1 SMH      -0.022400
     16 O16         -0.6790     0.0010    -1.1770 oh         1 SMH      -0.494100
     17 O17         -1.8900     0.2430     3.7590 o          1 SMH      -0.553100
     18 C18          2.2970     4.1120     4.2040 c3         1 SMH       0.106800
     19 C19          1.8490     4.3050     2.7540 c3         1 SMH       0.154100
     20 O20          2.8810     3.8590     1.8730 oh         1 SMH      -0.585800
     21 C21          1.5670     5.7870     2.5010 c3         1 SMH       0.193800
     22 N22          1.0630     5.9620     1.1360 n3         1 SMH      -0.499500
     23 C23         -0.2130     5.3590     0.7430 c3         1 SMH       0.208800
     24 C24         -1.3650     6.1510     1.3650 c3         1 SMH       0.189400
     25 C25          3.1310     5.7580    -0.6680 ca         1 SMH      -0.151500
     26 C26          2.8000     4.9840    -1.7660 ca         1 SMH       0.041200
     27 C27          3.7380     4.1330    -2.3180 ca         1 SMH      -0.152000
     28 C28          5.0060     4.0550    -1.7750 ca         1 SMH      -0.038000
     29 C29          5.3380     4.8280    -0.6780 ca         1 SMH      -0.152000
     30 C30          4.4010     5.6840    -0.1290 ca         1 SMH       0.041200
     31 C31          4.7620     6.5280     1.0670 c3         1 SMH       0.006200
     32 C32          1.4170     5.0690    -2.3570 c3         1 SMH       0.006200
     33 S33          1.9350     6.8430     0.0380 sy         1 SMH       1.057200
     34 O34          1.0360     7.1840    -1.0090 o          1 SMH      -0.590800
     35 O35          2.6620     7.8090     0.7850 o          1 SMH      -0.590800
     36 O36         -1.3860     7.4700     0.8170 os         1 SMH      -0.397600
     37 C37         -2.3570     9.6790     0.6790 c3         1 SMH       0.001900
     38 C38         -2.4300     8.2970     1.3330 c3         1 SMH       0.212400
     39 H2           1.9270    -0.0030    -0.9410 ha         1 SMH       0.114000
     40 H3           3.1780    -0.0000     1.1730 ha         1 SMH       0.122000
     41 H6          -1.7760     0.0040     1.2010 ha         1 SMH       0.129000
     42 H9           0.3050    -1.3120     5.0350 hc         1 SMH       0.051700
     43 H9A         -0.3710     0.1390     5.8080 hc         1 SMH       0.051700
     44 H11          0.7210     2.3380     5.5060 h1         1 SMH       0.030200
     45 H11A         0.6070     2.1700     3.7460 h1         1 SMH       0.030200
     46 H13          4.2850     3.0340     5.5140 h1         1 SMH       0.010200
     47 H13A         2.8450     2.8340     6.5270 h1         1 SMH       0.010200
     48 H14          4.2020     0.6420     4.9180 hc         1 SMH       0.028700
     49 H14A         4.2940     0.8450     6.6760 hc         1 SMH       0.028700
     50 H15          1.8620     0.5380     6.8560 hc         1 SMH       0.027700
     51 H15A         2.5870    -0.8470     6.0200 hc         1 SMH       0.027700
     52 HO16        -0.8630    -0.8870    -1.4350 ho         1 SMH       0.400000
     53 H18          1.5350     4.4940     4.8720 h1         1 SMH       0.020700
     54 H18A         3.2240     4.6490     4.3700 h1         1 SMH       0.020700
     55 H19          0.9480     3.7310     2.5750 h1         1 SMH       0.036700
     56 HO20         3.6540     3.6540     2.3720 ho         1 SMH       0.403000
     57 H21          0.8260     6.1400     3.2070 h1         1 SMH       0.035700
     58 H21A         2.4810     6.3550     2.6230 h1         1 SMH       0.035700
     59 H23         -0.3040     5.3770    -0.3370 h1         1 SMH       0.039200
     60 H23A        -0.2500     4.3340     1.0910 h1         1 SMH       0.039200
     61 H24         -1.2260     6.2070     2.4370 h1         1 SMH      -0.009300
     62 H24A        -2.3030     5.6540     1.1470 h1         1 SMH      -0.009300
     63 H27          3.4800     3.5260    -3.1780 ha         1 SMH       0.109000
     64 H28          5.7400     3.3860    -2.2070 ha         1 SMH       0.096000
     65 H29          6.3320     4.7690    -0.2540 ha         1 SMH       0.109000
     66 H31          3.9960     6.4240     1.8260 hc         1 SMH       0.031700
     67 H31A         4.8360     7.5660     0.7670 hc         1 SMH       0.031700
     68 H31B         5.7130     6.1990     1.4670 hc         1 SMH       0.031700
     69 H32          0.6910     4.7240    -1.6300 hc         1 SMH       0.031700
     70 H32A         1.3640     4.4470    -3.2430 hc         1 SMH       0.031700
     71 H32B         1.2000     6.0960    -2.6240 hc         1 SMH       0.031700
     72 H37         -2.3970     9.5710    -0.3980 hc         1 SMH       0.009033
     73 H37A        -3.1940    10.2810     1.0120 hc         1 SMH       0.009033
     74 H37B        -1.4300    10.1630     0.9600 hc         1 SMH       0.009033
     75 H38         -3.3900     7.8450     1.1160 h1         1 SMH      -0.017800
     76 H38A        -2.3140     8.3990     2.4050 h1         1 SMH      -0.017800
@<TRIPOS>BOND
     1     1     2 ar  
     2     1     6 ar  
     3     1    16 1   
     4     2     3 ar  
     5     2    39 1   
     6     3     4 ar  
     7     3    40 1   
     8     4     5 ar  
     9     4     7 1   
    10     5     6 ar  
    11     5    10 1   
    12     6    41 1   
    13     7     8 1   
    14     8     9 1   
    15     8    11 1   
    16     8    15 1   
    17     9    10 1   
    18     9    42 1   
    19     9    43 1   
    20    10    17 2   
    21    11    12 1   
    22    11    44 1   
    23    11    45 1   
    24    12    13 1   
    25    12    18 1   
    26    13    14 1   
    27    13    46 1   
    28    13    47 1   
    29    14    15 1   
    30    14    48 1   
    31    14    49 1   
    32    15    50 1   
    33    15    51 1   
    34    16    52 1   
    35    18    19 1   
    36    18    53 1   
    37    18    54 1   
    38    19    20 1   
    39    19    21 1   
    40    19    55 1   
    41    20    56 1   
    42    21    22 1   
    43    21    57 1   
    44    21    58 1   
    45    22    23 1   
    46    22    33 1   
    47    23    24 1   
    48    23    59 1   
    49    23    60 1   
    50    24    36 1   
    51    24    61 1   
    52    24    62 1   
    53    25    26 ar  
    54    25    30 ar  
    55    25    33 1   
    56    26    27 ar  
    57    26    32 1   
    58    27    28 ar  
    59    27    63 1   
    60    28    29 ar  
    61    28    64 1   
    62    29    30 ar  
    63    29    65 1   
    64    30    31 1   
    65    31    66 1   
    66    31    67 1   
    67    31    68 1   
    68    32    69 1   
    69    32    70 1   
    70    32    71 1   
    71    33    34 2   
    72    33    35 2   
    73    36    38 1   
    74    37    38 1   
    75    37    72 1   
    76    37    73 1   
    77    37    74 1   
    78    38    75 1   
    79    38    76 1   
@<TRIPOS>SUBSTRUCTURE
     1 SMH         1 TEMP              0 ****  ****    0 ROOT
