@<TRIPOS>MOLECULE
SMI
   50    52     1     0     0
SMALL
bcc


@<TRIPOS>ATOM
      1 O1           0.0000     0.0000     0.0000 os         1 SMI      -0.417600
      2 C2           1.4280     0.0000     0.0000 c3         1 SMI       0.196100
      3 C2M          1.9390    -1.2500    -0.7210 c3         1 SMI      -0.001100
      4 C3           1.9350     0.0000     1.4450 c3         1 SMI      -0.116400
      5 C4           1.3770     1.2290     2.1690 c3         1 SMI       0.361600
      6 C5          -0.1500     1.2120     2.0880 c3         1 SMI       0.322600
      7 O5          -0.6690     2.4040     2.6830 oh         1 SMI      -0.585800
      8 C6          -0.5880     1.1440     0.6230 c3         1 SMI       0.352900
      9 O1B         -0.6570     0.0770     2.7950 os         1 SMI      -0.346600
     10 O2B         -2.0150     1.0240     0.5630 os         1 SMI      -0.366600
     11 C7          -2.0810    -0.0320     2.7310 c3         1 SMI       0.155100
     12 C8          -2.5570    -1.2830     3.4690 c3         1 SMI       0.108500
     13 N8          -2.1350    -1.2140     4.8740 n7         1 SMI      -0.560200
     14 C8M         -2.0250    -2.5580     5.4570 c3         1 SMI       0.173100
     15 C9          -4.0850    -1.3570     3.3950 c3         1 SMI       0.125100
     16 O9          -4.6470    -0.2000     4.0160 oh         1 SMI      -0.572800
     17 C10         -4.5300    -1.4170     1.9340 c3         1 SMI       0.082500
     18 N10         -5.9970    -1.4720     1.8710 n7         1 SMI      -0.571200
     19 C1M         -6.4790    -2.8490     2.0330 c3         1 SMI       0.175100
     20 C11         -4.0360    -0.1730     1.1890 c3         1 SMI       0.207100
     21 O11         -4.4450    -0.2400    -0.1780 oh         1 SMI      -0.567800
     22 C12         -2.5100    -0.1200     1.2640 c3         1 SMI       0.122100
     23 O4A          1.7830     1.2010     3.5390 oh         1 SMI      -0.595300
     24 O4B          1.8760     2.4150     1.5470 oh         1 SMI      -0.595300
     25 H2           1.7870     0.8870    -0.5070 h1         1 SMI       0.016700
     26 H2M          2.5400    -1.8400    -0.0390 hc         1 SMI       0.013033
     27 H2MA         1.0970    -1.8390    -1.0630 hc         1 SMI       0.013033
     28 H2MB         2.5420    -0.9550    -1.5710 hc         1 SMI       0.013033
     29 H3           1.5980    -0.8990     1.9460 hc         1 SMI       0.044200
     30 H3A          3.0170     0.0390     1.4480 hc         1 SMI       0.044200
     31 HO5         -0.2120     3.1520     2.3380 ho         1 SMI       0.409000
     32 H6          -0.2750     2.0430     0.1060 h2         1 SMI       0.040700
     33 H7          -2.5290     0.8450     3.1840 h1         1 SMI       0.055700
     34 H8          -2.1310    -2.1610     3.0000 h1         1 SMI       0.049700
     35 HN8         -2.7990    -0.6780     5.3960 hn         1 SMI       0.260800
     36 H8M         -1.3240    -2.5380     6.2820 h1         1 SMI      -0.002967
     37 H8MA        -1.6750    -3.2510     4.7020 h1         1 SMI      -0.002967
     38 H8MB        -2.9970    -2.8760     5.8160 h1         1 SMI      -0.002967
     39 H9          -4.4250    -2.2480     3.9090 h1         1 SMI       0.008700
     40 HO9         -5.2120    -0.4650     4.7220 ho         1 SMI       0.390000
     41 H10         -4.1120    -2.3010     1.4680 h1         1 SMI       0.054700
     42 HN10        -6.3830    -0.8960     2.5930 hn         1 SMI       0.257800
     43 H1M         -5.8100    -3.5290     1.5200 h1         1 SMI      -0.001633
     44 H1MA        -7.4740    -2.9360     1.6130 h1         1 SMI      -0.001633
     45 H1MB        -6.5090    -3.1000     3.0870 h1         1 SMI      -0.001633
     46 H11         -4.4500     0.7130     1.6530 h1         1 SMI       0.024700
     47 HO11        -5.0280     0.4770    -0.3670 ho         1 SMI       0.394000
     48 H12         -2.0970    -1.0190     0.8220 h1         1 SMI       0.041700
     49 HO4A         2.6650     1.5250     3.6120 ho         1 SMI       0.397500
     50 HO4B         2.6780     2.6770     1.9680 ho         1 SMI       0.397500
@<TRIPOS>BOND
     1     1     2 1   
     2     1     8 1   
     3     2     3 1   
     4     2     4 1   
     5     2    25 1   
     6     3    26 1   
     7     3    27 1   
     8     3    28 1   
     9     4     5 1   
    10     4    29 1   
    11     4    30 1   
    12     5     6 1   
    13     5    23 1   
    14     5    24 1   
    15     6     7 1   
    16     6     8 1   
    17     6     9 1   
    18     7    31 1   
    19     8    10 1   
    20     8    32 1   
    21     9    11 1   
    22    10    22 1   
    23    11    12 1   
    24    11    22 1   
    25    11    33 1   
    26    12    13 1   
    27    12    15 1   
    28    12    34 1   
    29    13    14 1   
    30    13    35 1   
    31    14    36 1   
    32    14    37 1   
    33    14    38 1   
    34    15    16 1   
    35    15    17 1   
    36    15    39 1   
    37    16    40 1   
    38    17    18 1   
    39    17    20 1   
    40    17    41 1   
    41    18    19 1   
    42    18    42 1   
    43    19    43 1   
    44    19    44 1   
    45    19    45 1   
    46    20    21 1   
    47    20    22 1   
    48    20    46 1   
    49    21    47 1   
    50    22    48 1   
    51    23    49 1   
    52    24    50 1   
@<TRIPOS>SUBSTRUCTURE
     1 SMI         1 TEMP              0 ****  ****    0 ROOT
