@<TRIPOS>MOLECULE
molecule
   78    81     1     0     0
SMALL
bcc


@<TRIPOS>ATOM
      1 CAA          0.0000     0.0000     0.0000 c3         1 SMK      -0.114100
      2 CB           1.5300     0.0000     0.0000 c3         1 SMK      -0.108400
      3 CA           2.0400     0.0000     1.4430 c3         1 SMK       0.027500
      4 N            1.6510     1.2560     2.1000 nz         1 SMK      -0.796600
      5 C            3.5410    -0.1240     1.4440 c          1 SMK       0.644100
      6 O            4.2310     0.8620     1.5970 o          1 SMK      -0.632100
      7 NAY          4.1180    -1.3300     1.2760 ns         1 SMK      -0.519900
      8 CBI          5.5610    -1.4490     1.2780 c3         1 SMK       0.041700
      9 CBB          6.0370    -2.6130     0.4400 c          1 SMK       0.719500
     10 OAF          6.6110    -2.4120    -0.5970 o          1 SMK      -0.562500
     11 NBK          5.8150    -3.8840     0.8530 n          1 SMK      -0.488800
     12 CBF          6.1450    -1.5860     2.6910 c3         1 SMK      -0.083700
     13 CAS          6.4470    -0.1910     3.2470 c3         1 SMK      -0.106400
     14 CAQ          7.1440    -0.3230     4.6030 c3         1 SMK       0.088800
     15 NAB          7.4330     1.0150     5.1350 nz         1 SMK      -0.809600
     16 CAT          5.1510    -2.3010     3.6020 c3         1 SMK      -0.091400
     17 CAU          4.5630    -3.5570     2.9810 c3         1 SMK      -0.092400
     18 CBG          5.6230    -4.3460     2.2240 c3         1 SMK       0.096700
     19 CAV          5.1540    -5.8110     2.1030 c3         1 SMK      -0.098400
     20 CAW          5.8970    -6.2710     0.8310 c3         1 SMK      -0.083400
     21 CBJ          5.7750    -5.0310    -0.0670 c3         1 SMK       0.022700
     22 CBA          4.4720    -5.0490    -0.8220 c          1 SMK       0.663100
     23 OAE          3.6420    -4.1890    -0.6190 o          1 SMK      -0.655100
     24 NAX          4.2280    -6.0220    -1.7220 ns         1 SMK      -0.558900
     25 CBH          2.9590    -6.0400    -2.4560 c3         1 SMK       0.216300
     26 CBC          3.0670    -5.1470    -3.6650 ca         1 SMK      -0.105800
     27 CAM          2.0010    -4.3460    -4.0290 ca         1 SMK      -0.117750
     28 CAI          2.1000    -3.5260    -5.1390 ca         1 SMK      -0.119500
     29 CAG          3.2630    -3.5100    -5.8840 ca         1 SMK      -0.113000
     30 CAJ          4.3300    -4.3100    -5.5190 ca         1 SMK      -0.119500
     31 CAN          4.2330    -5.1260    -4.4070 ca         1 SMK      -0.117750
     32 CBD          2.6540    -7.4480    -2.8960 ca         1 SMK      -0.105800
     33 CAO          1.3590    -7.9260    -2.8330 ca         1 SMK      -0.117750
     34 CAK          1.0780    -9.2180    -3.2370 ca         1 SMK      -0.119500
     35 CAH          2.0920   -10.0310    -3.7050 ca         1 SMK      -0.113000
     36 CAL          3.3870    -9.5530    -3.7700 ca         1 SMK      -0.119500
     37 CAP          3.6680    -8.2600    -3.3690 ca         1 SMK      -0.117750
     38 HAA         -0.3610    -0.6370     0.7980 hc         1 SMK       0.060700
     39 HAAA        -0.3610     1.0100     0.1520 hc         1 SMK       0.060700
     40 HAAB        -0.3610    -0.3730    -0.9510 hc         1 SMK       0.060700
     41 HB           1.8910    -0.8850    -0.5110 hc         1 SMK       0.103200
     42 HBA          1.8910     0.8840    -0.5110 hc         1 SMK       0.103200
     43 HA           1.6080    -0.8370     1.9790 hx         1 SMK       0.123700
     44 HN           1.8930     2.0290     1.5120 hn         1 SMK       0.463467
     45 HNA          0.6630     1.2560     2.2610 hn         1 SMK       0.463467
     46 HNAY         3.5510    -2.1330     1.0890 hn         1 SMK       0.366500
     47 HBI          5.9700    -0.5450     0.8420 h1         1 SMK       0.110700
     48 HBF          7.0610    -2.1630     2.6420 hc         1 SMK       0.090700
     49 HAS          5.5210     0.3570     3.3690 hc         1 SMK       0.074200
     50 HASA         7.0940     0.3390     2.5590 hc         1 SMK       0.074200
     51 HAQ          8.0700    -0.8710     4.4810 hx         1 SMK       0.115700
     52 HAQA         6.4970    -0.8540     5.2910 hx         1 SMK       0.115700
     53 HNAB         7.8960     0.9300     6.0190 hn         1 SMK       0.460133
     54 HNAA         8.0240     1.5080     4.4960 hn         1 SMK       0.460133
     55 HAT          4.3420    -1.6190     3.8340 hc         1 SMK       0.035200
     56 HATA         5.6570    -2.5740     4.5200 hc         1 SMK       0.035200
     57 HAU          3.8610    -3.2140     2.2320 hc         1 SMK       0.073200
     58 HAUA         4.2680    -4.1860     3.8130 hc         1 SMK       0.073200
     59 HBG          6.5640    -4.3060     2.7600 h1         1 SMK       0.053700
     60 HAV          5.4690    -6.3890     2.9630 hc         1 SMK       0.072700
     61 HAVA         4.0810    -5.8620     1.9630 hc         1 SMK       0.072700
     62 HAW          5.3030    -7.0560     0.3780 hc         1 SMK       0.085200
     63 HAWA         6.9430    -6.3790     1.0910 hc         1 SMK       0.085200
     64 HBJ          6.6120    -4.9860    -0.7540 h1         1 SMK       0.105700
     65 HNAX         4.8980    -6.7520    -1.8630 hn         1 SMK       0.328500
     66 HBH          2.1640    -5.6820    -1.8120 h1         1 SMK       0.079700
     67 HAM          1.0890    -4.3590    -3.4450 ha         1 SMK       0.124500
     68 HAI          1.2640    -2.8990    -5.4250 ha         1 SMK       0.138500
     69 HAG          3.3400    -2.8690    -6.7540 ha         1 SMK       0.142000
     70 HAJ          5.2420    -4.2950    -6.1020 ha         1 SMK       0.138500
     71 HAN          5.0690    -5.7540    -4.1210 ha         1 SMK       0.124500
     72 HAO          0.5630    -7.2880    -2.4660 ha         1 SMK       0.124500
     73 HAK          0.0620    -9.5920    -3.1870 ha         1 SMK       0.138500
     74 HAH          1.8720   -11.0440    -4.0200 ha         1 SMK       0.142000
     75 HAL          4.1820   -10.1900    -4.1380 ha         1 SMK       0.138500
     76 HAP          4.6830    -7.8860    -3.4200 ha         1 SMK       0.124500
     77 HN3          1.9590     1.2430     3.0520 hn         1 SMK       0.463467
     78 HAB3         6.5750     1.5060     5.2890 hn         1 SMK       0.460133
@<TRIPOS>BOND
     1     1     2 1
     2     2     3 1
     3     3     4 1
     4     3     5 1
     5     5     6 2
     6     5     7 1
     7     7     8 1
     8     8     9 1
     9     8    12 1
    10     9    10 2
    11     9    11 1
    12    11    18 1
    13    11    21 1
    14    12    13 1
    15    12    16 1
    16    13    14 1
    17    14    15 1
    18    16    17 1
    19    17    18 1
    20    18    19 1
    21    19    20 1
    22    20    21 1
    23    21    22 1
    24    22    23 2
    25    22    24 1
    26    24    25 1
    27    25    26 1
    28    25    32 1
    29    26    27 ar
    30    26    31 ar
    31    27    28 ar
    32    28    29 ar
    33    29    30 ar
    34    30    31 ar
    35    32    33 ar
    36    32    37 ar
    37    33    34 ar
    38    34    35 ar
    39    35    36 ar
    40    36    37 ar
    41     1    38 1
    42     1    39 1
    43     1    40 1
    44     2    41 1
    45     2    42 1
    46     3    43 1
    47     4    44 1
    48     4    45 1
    49     7    46 1
    50     8    47 1
    51    12    48 1
    52    13    49 1
    53    13    50 1
    54    14    51 1
    55    14    52 1
    56    15    53 1
    57    15    54 1
    58    16    55 1
    59    16    56 1
    60    17    57 1
    61    17    58 1
    62    18    59 1
    63    19    60 1
    64    19    61 1
    65    20    62 1
    66    20    63 1
    67    21    64 1
    68    24    65 1
    69    25    66 1
    70    27    67 1
    71    28    68 1
    72    29    69 1
    73    30    70 1
    74    31    71 1
    75    33    72 1
    76    34    73 1
    77    35    74 1
    78    36    75 1
    79    37    76 1
    80    77     4 1
    81    78    15 1
@<TRIPOS>SUBSTRUCTURE
     1 SMK         1 TEMP              0 ****  ****    0 ROOT
