@<TRIPOS>MOLECULE
molecule
   18    18     1     0     0
SMALL
bcc


@<TRIPOS>ATOM
      1 C32          0.0000     0.0000     0.0000 c3         1 SML      -0.226300
      2 S33          1.8130     0.0000     0.0000 sy         1 SML       1.192300
      3 O34          2.3380     0.0000     1.3200 o          1 SML      -0.616800
      4 O35          2.3370    -0.8400    -1.0200 o          1 SML      -0.616800
      5 C36          2.2140     1.6140    -0.5790 ca         1 SML      -0.298500
      6 C37          2.3730     2.6520     0.3200 ca         1 SML      -0.029000
      7 C38          2.6890     3.9180    -0.1350 ca         1 SML      -0.151000
      8 C39          2.8460     4.1470    -1.4890 ca         1 SML      -0.075000
      9 C40          2.6890     3.1090    -2.3880 ca         1 SML      -0.151000
     10 C41          2.3780     1.8420    -1.9330 ca         1 SML      -0.029000
     11 H321        -0.3610    -0.9620     0.3440 h1         1 SML       0.098367
     12 H322        -0.3610     0.1830    -1.0050 h1         1 SML       0.098367
     13 H323        -0.3610     0.7780     0.6610 h1         1 SML       0.098367
     14 H371         2.2500     2.4730     1.3810 ha         1 SML       0.150000
     15 H381         2.8130     4.7310     0.5700 ha         1 SML       0.136000
     16 H391         3.0920     5.1400    -1.8450 ha         1 SML       0.133000
     17 H401         2.8140     3.2880    -3.4490 ha         1 SML       0.136000
     18 H411         2.2540     1.0290    -2.6380 ha         1 SML       0.150000
@<TRIPOS>BOND
     1     1     2 1
     2     1    11 1
     3     1    12 1
     4     1    13 1
     5     2     3 2
     6     2     4 2
     7     2     5 1
     8     5     6 ar
     9     5    10 ar
    10     6     7 ar
    11     6    14 1
    12     7     8 ar
    13     7    15 1
    14     8     9 ar
    15     8    16 1
    16     9    10 ar
    17     9    17 1
    18    10    18 1
@<TRIPOS>SUBSTRUCTURE
     1 SML         1 TEMP              0 ****  ****    0 ROOT
