@<TRIPOS>MOLECULE
SML
   18    18     1     0     0
SMALL
bcc


@<TRIPOS>ATOM
      1 C32         0.1500    0.1110    0.0450 c3        1 SML     -0.356300
      2 S33         1.8430    0.0670    0.0910 sy        1 SML      1.397300
      3 O34         2.2570    0.0000    1.4290 o         1 SML     -0.657800
      4 O35         2.2930   -0.9370   -0.7790 o         1 SML     -0.657800
      5 C36         2.1860    1.5780   -0.5450 ca        1 SML     -0.388500
      6 C37         2.3300    2.6920    0.2930 ca        1 SML     -0.018000
      7 C38         2.6350    3.9460   -0.2290 ca        1 SML     -0.156000
      8 C39         2.8040    4.1030   -1.6060 ca        1 SML     -0.065000
      9 C40         2.6730    3.0020   -2.4530 ca        1 SML     -0.156000
     10 C41         2.3690    1.7510   -1.9230 ca        1 SML     -0.018000
     11 H321       -0.2880   -0.8360    0.4500 h1        1 SML      0.113367
     12 H322       -0.2570    0.2260   -0.9890 h1        1 SML      0.113367
     13 H323       -0.2840    0.9410    0.6540 h1        1 SML      0.113367
     14 H371        2.2160    2.5620    1.3850 ha        1 SML      0.155000
     15 H381        2.7460    4.8100    0.4430 ha        1 SML      0.143000
     16 H391        3.0450    5.0930   -2.0220 ha        1 SML      0.139000
     17 H401        2.8160    3.1200   -3.5380 ha        1 SML      0.143000
     18 H411        2.2850    0.8740   -2.5910 ha        1 SML      0.155000
@<TRIPOS>BOND
     1    1    2 1   
     2    1   11 1   
     3    1   12 1   
     4    1   13 1   
     5    2    3 2   
     6    2    4 2   
     7    2    5 1   
     8    5    6 ar  
     9    5   10 ar  
    10    6    7 ar  
    11    6   14 1   
    12    7    8 ar  
    13    7   15 1   
    14    8    9 ar  
    15    8   16 1   
    16    9   10 ar  
    17    9   17 1   
    18   10   18 1   
@<TRIPOS>SUBSTRUCTURE
     1 SML         1 TEMP              0 ****  ****    0 ROOT
