@<TRIPOS>MOLECULE
SMM
   55    57     1     0     0
SMALL
bcc


@<TRIPOS>ATOM
      1 N            0.0000     0.0000     0.0000 nz         1 SMM       0.106400
      2 CA           1.4420     0.0000     0.0000 c3         1 SMM      -0.174500
      3 CB           1.9960     0.0000     1.4280 c3         1 SMM       0.008600
      4 CG           1.6540    -1.2760     2.1880 c3         1 SMM       0.098400
      5 SD           2.3320    -1.2520     3.8170 s6         1 SMM      -1.087200
      6 CE           1.8100    -2.7490     4.5960 c3         1 SMM       0.219700
      7 C5'          1.5040     0.0610     4.6600 c3         1 SMM       0.155400
      8 C4'          1.9310     0.1460     6.1190 c3         1 SMM       0.175100
      9 O4'          3.3500     0.4240     6.1620 os         1 SMM      -0.403600
     10 C1'          3.5500     1.7300     6.7350 c3         1 SMM       0.154800
     11 N9           4.6250     2.4200     6.0250 na         1 SMM       0.186000
     12 C4           5.5190     3.3090     6.5540 ca         1 SMM       0.292800
     13 N3           5.5970     3.7320     7.8240 nb         1 SMM      -0.671000
     14 C2           6.6120     4.6120     7.9670 ca         1 SMM       0.702900
     15 N1           7.4800     5.0670     7.0330 nb         1 SMM      -0.729000
     16 C6           7.3430     4.5970     5.7690 ca         1 SMM       0.591200
     17 N6           8.2130     5.0310     4.7550 nv         1 SMM      -0.478500
     18 C5           6.3310     3.6820     5.4950 ca         1 SMM      -0.243200
     19 N7           5.9500     3.0420     4.3420 nc         1 SMM      -0.489100
     20 C8           4.9260     2.2940     4.6940 cd         1 SMM       0.228700
     21 C2'          2.2040     2.4360     6.6600 c3         1 SMM       0.141100
     22 O2'          2.0830     3.4440     7.6430 oh         1 SMM      -0.525800
     23 C3'          1.2460     1.2810     6.8730 c3         1 SMM       0.132100
     24 O3'          1.2010     0.9480     8.2620 oh         1 SMM      -0.542800
     25 C            1.9920    -1.1920    -0.7740 c          1 SMM       0.708100
     26 O            1.2690    -2.0640    -1.2470 o          1 SMM      -0.549000
     27 OXT          3.3510    -1.1670    -0.8670 os         1 SMM      -0.369900
     28 CXT          3.9460    -2.2570    -1.5790 c3         1 SMM       0.260700
     29 HN1         -0.3340    -0.8930     0.3040 hn         1 SMM       0.226800
     30 HN2         -0.3340     0.1830    -0.9260 hn         1 SMM       0.226800
     31 HA1          1.7780     0.9050    -0.4920 hx         1 SMM       0.101700
     32 HB1          3.0730     0.1040     1.3850 hc         1 SMM       0.052200
     33 HB2          1.5830     0.8470     1.9630 hc         1 SMM       0.052200
     34 HG1          0.5770    -1.3720     2.2530 h1         1 SMM       0.038700
     35 HG2          2.0540    -2.1270     1.6500 h1         1 SMM       0.038700
     36 HD1          3.6520    -1.1080     3.8190 hs         1 SMM       0.333800
     37 HE1          2.4000    -2.9160     5.4890 h1         1 SMM       0.047700
     38 HE2          0.7630    -2.6710     4.8630 h1         1 SMM       0.047700
     39 HE3          1.9470    -3.5790     3.9120 h1         1 SMM       0.047700
     40 H5'1         0.4350    -0.1080     4.6140 h1         1 SMM       0.045700
     41 H5'2         1.7350     0.9980     4.1690 h1         1 SMM       0.045700
     42 H4'          1.7310    -0.7940     6.6180 h1         1 SMM       0.053700
     43 H1'          3.8270     1.6160     7.7760 h2         1 SMM       0.090700
     44 H2           6.7500     5.0080     8.9660 h5         1 SMM      -0.011900
     45 HN61         8.1080     4.6830     3.8220 hn         1 SMM       0.279300
     46 HN62         8.9370     5.6890     4.9650 hn         1 SMM       0.279300
     47 H8           4.3850     1.6510     4.0100 h5         1 SMM       0.012800
     48 H2'          2.0630     2.8550     5.6710 h1         1 SMM       0.004700
     49 HO2'         1.5690     4.1560     7.3000 ho         1 SMM       0.392000
     50 H3'          0.2640     1.4950     6.4690 h1         1 SMM       0.015700
     51 HO3'         0.3040     0.8510     8.5330 ho         1 SMM       0.397000
     52 HXT1         5.0240    -2.1490    -1.5680 h1         1 SMM       0.019700
     53 HXT2         3.6720    -3.1910    -1.1030 h1         1 SMM       0.019700
     54 HXT3         3.5930    -2.2560    -2.6030 h1         1 SMM       0.019700
     55 HN3         -0.3340     0.6970     0.6350 hn         1 SMM       0.226800
@<TRIPOS>BOND
     1     1     2 1   
     2     1    29 1   
     3     1    30 1   
     4     1    55 1   
     5     2     3 1   
     6     2    25 1   
     7     2    31 1   
     8     3     4 1   
     9     3    32 1   
    10     3    33 1   
    11     4     5 1   
    12     4    34 1   
    13     4    35 1   
    14     5     6 1   
    15     5     7 1   
    16     5    36 1   
    17     6    37 1   
    18     6    38 1   
    19     6    39 1   
    20     7     8 1   
    21     7    40 1   
    22     7    41 1   
    23     8     9 1   
    24     8    23 1   
    25     8    42 1   
    26     9    10 1   
    27    10    11 1   
    28    10    21 1   
    29    10    43 1   
    30    11    12 1   
    31    11    20 1   
    32    12    13 ar  
    33    12    18 ar  
    34    13    14 ar  
    35    14    15 ar  
    36    14    44 1   
    37    15    16 ar  
    38    16    17 1   
    39    16    18 ar  
    40    17    45 1   
    41    17    46 1   
    42    18    19 1   
    43    19    20 2   
    44    20    47 1   
    45    21    22 1   
    46    21    23 1   
    47    21    48 1   
    48    22    49 1   
    49    23    24 1   
    50    23    50 1   
    51    24    51 1   
    52    25    26 2   
    53    25    27 1   
    54    27    28 1   
    55    28    52 1   
    56    28    53 1   
    57    28    54 1   
@<TRIPOS>SUBSTRUCTURE
     1 SMM         1 TEMP              0 ****  ****    0 ROOT
