@<TRIPOS>MOLECULE
molecule
   18    18     1     0     0
SMALL
bcc


@<TRIPOS>ATOM
      1 C1           0.0000     0.0000     0.0000 ca         1 SMN      -0.032300
      2 C2           1.3820     0.0000     0.0000 ca         1 SMN      -0.104000
      3 C3           2.0720     0.0000     1.1980 ca         1 SMN      -0.147500
      4 C4           1.3820    -0.0010     2.3940 ca         1 SMN      -0.158000
      5 C5           0.0000     0.0000     2.3940 ca         1 SMN      -0.147500
      6 C6          -0.6910     0.0040     1.1970 ca         1 SMN      -0.104000
      7 C7          -0.7530    -0.0000    -1.3040 c3         1 SMN       0.075400
      8 C10         -1.0050     1.4180    -1.7390 c          1 SMN       0.883600
      9 O8           0.0200    -0.6740    -2.3010 oh         1 SMN      -0.600800
     10 O11         -0.5690     1.8150    -2.7930 o          1 SMN      -0.830300
     11 O12         -1.7160     2.2440    -0.9550 o          1 SMN      -0.830300
     12 H2           1.9240    -0.0350    -0.9370 ha         1 SMN       0.139500
     13 H3           3.1560     0.0020     1.1980 ha         1 SMN       0.107000
     14 H4           1.9230    -0.0010     3.3320 ha         1 SMN       0.102000
     15 H5          -0.5410    -0.0140     3.3320 ha         1 SMN       0.107000
     16 H6          -1.7740    -0.0170     1.1970 ha         1 SMN       0.139500
     17 H7          -1.6990    -0.5120    -1.1740 h1         1 SMN       0.025700
     18 HO8         -0.5180    -1.3150    -2.7350 ho         1 SMN       0.376000
@<TRIPOS>BOND
     1     1     2 ar
     2     1     6 ar
     3     1     7 1
     4     2     3 ar
     5     2    12 1
     6     3     4 ar
     7     3    13 1
     8     4     5 ar
     9     4    14 1
    10     5     6 ar
    11     5    15 1
    12     6    16 1
    13     7     8 1
    14     7     9 1
    15     7    17 1
    16     8    10 1
    17     8    11 1
    18     9    18 1
@<TRIPOS>SUBSTRUCTURE
     1 SMN         1 TEMP              0 ****  ****    0 ROOT
