@<TRIPOS>MOLECULE
SMN
   18    18     1     0     0
SMALL
bcc


@<TRIPOS>ATOM
      1 C1          0.0530   -0.0820   -0.0240 ca        1 SMN     -0.052300
      2 C2          1.4040   -0.4460    0.0140 ca        1 SMN     -0.126000
      3 C3          2.1220   -0.3730    1.2070 ca        1 SMN     -0.150000
      4 C4          1.4980    0.0640    2.3740 ca        1 SMN     -0.164000
      5 C5          0.1530    0.4370    2.3410 ca        1 SMN     -0.150000
      6 C6         -0.5660    0.3670    1.1510 ca        1 SMN     -0.126000
      7 C7         -0.7530   -0.1900   -1.2830 c3        1 SMN      0.042400
      8 C10        -1.5540    1.1150   -1.5800 c         1 SMN      0.904600
      9 O8          0.0660   -0.5440   -2.3850 oh        1 SMN     -0.639800
     10 O11        -1.1560    1.8010   -2.5630 o         1 SMN     -0.827300
     11 O12        -2.5490    1.3830   -0.8550 o         1 SMN     -0.827300
     12 H2          1.8910   -0.7890   -0.9120 ha        1 SMN      0.157500
     13 H3          3.1820   -0.6600    1.2260 ha        1 SMN      0.107500
     14 H4          2.0630    0.1210    3.3140 ha        1 SMN      0.103000
     15 H5         -0.3380    0.7940    3.2570 ha        1 SMN      0.107500
     16 H6         -1.6230    0.6900    1.0980 ha        1 SMN      0.157500
     17 H7         -1.4850   -1.0390   -1.1630 h1        1 SMN      0.054700
     18 HO8         0.1870    0.2630   -2.9130 ho        1 SMN      0.427000
@<TRIPOS>BOND
     1    1    2 ar  
     2    1    6 ar  
     3    1    7 1   
     4    2    3 ar  
     5    2   12 1   
     6    3    4 ar  
     7    3   13 1   
     8    4    5 ar  
     9    4   14 1   
    10    5    6 ar  
    11    5   15 1   
    12    6   16 1   
    13    7    8 1   
    14    7    9 1   
    15    7   17 1   
    16    8   10 1   
    17    8   11 1   
    18    9   18 1   
@<TRIPOS>SUBSTRUCTURE
     1 SMN         1 TEMP              0 ****  ****    0 ROOT
