@<TRIPOS>MOLECULE
SMR
   79    83     1     0     0
SMALL
bcc


@<TRIPOS>ATOM
      1 C1           0.0000     0.0000     0.0000 c3         1 SMR       0.166800
      2 C2           1.5290     0.0000     0.0000 c3         1 SMR      -0.022400
      3 C3           2.0330     0.0000     1.4470 c3         1 SMR      -0.024400
      4 C4           1.4650    -1.2200     2.1770 c3         1 SMR       0.151800
      5 C5          -0.5110    -1.2150     0.7760 c3         1 SMR       0.107800
      6 O6          -0.4830     1.1990     0.6010 os         1 SMR      -0.282900
      7 C7          -1.8040     1.4950     0.4710 ca         1 SMR       0.128100
      8 C8          -2.5930     0.8850    -0.4750 ca         1 SMR      -0.111300
      9 C9          -2.0380    -0.1570    -1.4110 c3         1 SMR       0.038900
     10 C10         -0.5100    -0.0620    -1.4450 c3         1 SMR      -0.061400
     11 C11         -2.3560     2.4510     1.3320 ca         1 SMR      -0.075000
     12 C12         -3.6720     2.7970     1.2490 ca         1 SMR      -0.086000
     13 C13         -4.4900     2.1980     0.2960 ca         1 SMR      -0.211200
     14 C14         -3.9480     1.2350    -0.5760 ca         1 SMR      -0.228900
     15 N15         -5.8160     2.3250    -0.0340 na         1 SMR       0.413900
     16 N16         -6.1080     1.4630    -1.0960 nc         1 SMR      -0.634100
     17 C17         -5.0380     0.8040    -1.4440 cd         1 SMR       0.421800
     18 C19         -2.0420    -1.9270     3.2760 c3         1 SMR       0.153100
     19 C20         -2.6130    -2.9990     4.2060 c3         1 SMR       0.187800
     20 O21         -2.1210    -0.6510     3.9150 oh         1 SMR      -0.585800
     21 N22         -4.0490    -2.7730     4.3860 n3         1 SMR      -0.501500
     22 C23         -4.9640    -2.9300     3.2530 c3         1 SMR       0.215800
     23 C24         -5.2740    -4.4150     3.0490 c3         1 SMR       0.188400
     24 C25         -4.3720    -0.6090     6.0560 ca         1 SMR      -0.150500
     25 C26         -5.3430     0.2870     5.6480 ca         1 SMR       0.041700
     26 C27         -5.1340     1.6460     5.7920 ca         1 SMR      -0.151000
     27 C28         -3.9540     2.1090     6.3430 ca         1 SMR      -0.037000
     28 C29         -2.9830     1.2140     6.7510 ca         1 SMR      -0.151000
     29 C30         -3.1940    -0.1450     6.6110 ca         1 SMR       0.041700
     30 C31         -2.1380    -1.1220     7.0610 c3         1 SMR       0.009200
     31 C32         -6.6300    -0.2190     5.0480 c3         1 SMR       0.009200
     32 O33         -5.9880    -4.9120     4.1830 os         1 SMR      -0.394600
     33 C34         -7.0850    -6.7200     5.3550 c3         1 SMR       0.001900
     34 C35         -6.3270    -6.2970     4.0940 c3         1 SMR       0.212400
     35 S36         -4.6390    -2.3410     5.8730 sy         1 SMR       1.058200
     36 O37         -6.0460    -2.5260     5.8160 o          1 SMR      -0.590300
     37 O38         -3.8090    -2.9790     6.8340 o          1 SMR      -0.590300
     38 N39         -0.0020    -1.1700     2.1520 n3         1 SMR      -0.521600
     39 H2           1.8900     0.8860    -0.5080 hc         1 SMR       0.025200
     40 H2A          1.8900    -0.8860    -0.5080 hc         1 SMR       0.025200
     41 H3           3.1150    -0.0480     1.4520 hc         1 SMR       0.027700
     42 H3A          1.7020     0.9040     1.9440 hc         1 SMR       0.027700
     43 H4           1.8070    -1.2140     3.2050 h1         1 SMR       0.007700
     44 H4A          1.8030    -2.1230     1.6840 h1         1 SMR       0.007700
     45 H5          -1.5940    -1.2010     0.7930 h1         1 SMR       0.029200
     46 H5A         -0.1650    -2.1210     0.2940 h1         1 SMR       0.029200
     47 H9          -2.4300     0.0100    -2.4070 hc         1 SMR       0.023700
     48 H9A         -2.3280    -1.1420    -1.0650 hc         1 SMR       0.023700
     49 H10         -0.1020    -0.9360    -1.9380 hc         1 SMR       0.029700
     50 H10A        -0.2130     0.8350    -1.9750 hc         1 SMR       0.029700
     51 H11         -1.7270     2.9250     2.0760 ha         1 SMR       0.115000
     52 H12         -4.0690     3.5730     1.8920 ha         1 SMR       0.104000
     53 H17         -4.9710     0.0690    -2.2370 h4         1 SMR       0.012800
     54 H18         -0.5250    -3.1820     2.4140 h1         1 SMR       0.017700
     55 H18A        -0.0240    -2.3430     3.8880 h1         1 SMR       0.017700
     56 H19         -2.6130    -1.9060     2.3560 h1         1 SMR       0.036700
     57 H20         -2.4530    -3.9780     3.7700 h1         1 SMR       0.036200
     58 H20A        -2.1160    -2.9460     5.1670 h1         1 SMR       0.036200
     59 HO21        -1.2590    -0.3810     4.1850 ho         1 SMR       0.405000
     60 H23         -4.5010    -2.5310     2.3580 h1         1 SMR       0.034700
     61 H23A        -5.8830    -2.3930     3.4540 h1         1 SMR       0.034700
     62 H24         -4.3480    -4.9650     2.9350 h1         1 SMR      -0.009800
     63 H24A        -5.8790    -4.5380     2.1590 h1         1 SMR      -0.009800
     64 H27         -5.8950     2.3480     5.4730 ha         1 SMR       0.108000
     65 H28         -3.7890     3.1740     6.4540 ha         1 SMR       0.096000
     66 H29         -2.0590     1.5770     7.1840 ha         1 SMR       0.108000
     67 H31         -2.4290    -1.5580     8.0090 hc         1 SMR       0.030200
     68 H31A        -2.0330    -1.9060     6.3200 hc         1 SMR       0.030200
     69 H31B        -1.1930    -0.6050     7.1760 hc         1 SMR       0.030200
     70 H32         -6.4130    -0.7730     4.1420 hc         1 SMR       0.030200
     71 H32A        -7.2720     0.6210     4.8120 hc         1 SMR       0.030200
     72 H32B        -7.1290    -0.8680     5.7570 hc         1 SMR       0.030200
     73 H34         -7.3830    -7.7570     5.2660 hc         1 SMR       0.009367
     74 H34A        -7.9660    -6.1000     5.4710 hc         1 SMR       0.009367
     75 H34B        -6.4430    -6.6010     6.2190 hc         1 SMR       0.009367
     76 H35         -6.9530    -6.4600     3.2250 h1         1 SMR      -0.017800
     77 H35A        -5.4220    -6.8850     4.0020 h1         1 SMR      -0.017800
     78 HN15        -6.4700     2.9380     0.4120 hn         1 SMR       0.151700
     79 C18         -0.5790    -2.2500     2.9630 c3         1 SMR       0.107800
@<TRIPOS>BOND
     1     1     2 1   
     2     1     5 1   
     3     1     6 1   
     4     1    10 1   
     5     2     3 1   
     6     2    39 1   
     7     2    40 1   
     8     3     4 1   
     9     3    41 1   
    10     3    42 1   
    11     4    38 1   
    12     4    43 1   
    13     4    44 1   
    14     5    38 1   
    15     5    45 1   
    16     5    46 1   
    17     6     7 1   
    18     7     8 ar  
    19     7    11 ar  
    20     8     9 1   
    21     8    14 ar  
    22     9    10 1   
    23     9    47 1   
    24     9    48 1   
    25    10    49 1   
    26    10    50 1   
    27    11    12 ar  
    28    11    51 1   
    29    12    13 ar  
    30    12    52 1   
    31    13    14 ar  
    32    13    15 1   
    33    14    17 1   
    34    15    16 1   
    35    15    78 1   
    36    16    17 2   
    37    17    53 1   
    38    18    19 1   
    39    18    20 1   
    40    18    56 1   
    41    18    79 1   
    42    19    21 1   
    43    19    57 1   
    44    19    58 1   
    45    20    59 1   
    46    21    22 1   
    47    21    35 1   
    48    22    23 1   
    49    22    60 1   
    50    22    61 1   
    51    23    32 1   
    52    23    62 1   
    53    23    63 1   
    54    24    25 ar  
    55    24    29 ar  
    56    24    35 1   
    57    25    26 ar  
    58    25    31 1   
    59    26    27 ar  
    60    26    64 1   
    61    27    28 ar  
    62    27    65 1   
    63    28    29 ar  
    64    28    66 1   
    65    29    30 1   
    66    30    67 1   
    67    30    68 1   
    68    30    69 1   
    69    31    70 1   
    70    31    71 1   
    71    31    72 1   
    72    32    34 1   
    73    33    34 1   
    74    33    73 1   
    75    33    74 1   
    76    33    75 1   
    77    34    76 1   
    78    34    77 1   
    79    35    36 2   
    80    35    37 2   
    81    38    79 1   
    82    54    79 1   
    83    55    79 1   
@<TRIPOS>SUBSTRUCTURE
     1 SMR         1 TEMP              0 ****  ****    0 ROOT
