@<TRIPOS>MOLECULE
molecule
   79    83     1     0     0
SMALL
bcc


@<TRIPOS>ATOM
      1 C1           0.0000     0.0000     0.0000 c3         1 SMR       0.164800
      2 C2           1.5290     0.0000     0.0000 c3         1 SMR      -0.067400
      3 C3           2.0330     0.0000     1.4470 c3         1 SMR      -0.077400
      4 C4           1.4650    -1.2200     2.1770 c3         1 SMR       0.161800
      5 C5          -0.5110    -1.2150     0.7760 c3         1 SMR       0.139800
      6 O6          -0.4830     1.1990     0.6010 os         1 SMR      -0.307900
      7 C7          -1.8040     1.4950     0.4710 ca         1 SMR       0.121100
      8 C8          -2.5930     0.8850    -0.4750 ca         1 SMR      -0.110300
      9 C9          -2.0380    -0.1570    -1.4110 c3         1 SMR      -0.029100
     10 C10         -0.5100    -0.0620    -1.4450 c3         1 SMR      -0.111400
     11 C11         -2.3560     2.4510     1.3320 ca         1 SMR      -0.091000
     12 C12         -3.6720     2.7970     1.2490 ca         1 SMR      -0.126000
     13 C13         -4.4900     2.1980     0.2960 ca         1 SMR      -0.044200
     14 C14         -3.9480     1.2350    -0.5760 ca         1 SMR      -0.222900
     15 N15         -5.8160     2.3250    -0.0340 na         1 SMR      -0.053100
     16 N16         -6.1080     1.4630    -1.0960 nc         1 SMR      -0.499100
     17 C17         -5.0380     0.8040    -1.4440 cd         1 SMR       0.366800
     18 C19         -2.0420    -1.9270     3.2760 c3         1 SMR       0.125100
     19 C20         -2.6130    -2.9990     4.2060 c3         1 SMR       0.207800
     20 O21         -2.1210    -0.6510     3.9150 oh         1 SMR      -0.589800
     21 N22         -4.0490    -2.7730     4.3860 n3         1 SMR      -0.796500
     22 C23         -4.9640    -2.9300     3.2530 c3         1 SMR       0.237800
     23 C24         -5.2740    -4.4150     3.0490 c3         1 SMR       0.117400
     24 C25         -4.3720    -0.6090     6.0560 ca         1 SMR      -0.306500
     25 C26         -5.3430     0.2870     5.6480 ca         1 SMR       0.035700
     26 C27         -5.1340     1.6460     5.7920 ca         1 SMR      -0.162500
     27 C28         -3.9540     2.1090     6.3430 ca         1 SMR      -0.067000
     28 C29         -2.9830     1.2140     6.7510 ca         1 SMR      -0.162500
     29 C30         -3.1940    -0.1450     6.6110 ca         1 SMR       0.035700
     30 C31         -2.1380    -1.1220     7.0610 c3         1 SMR      -0.071300
     31 C32         -6.6300    -0.2190     5.0480 c3         1 SMR      -0.071300
     32 O33         -5.9880    -4.9120     4.1830 os         1 SMR      -0.414600
     33 C34         -7.0850    -6.7200     5.3550 c3         1 SMR      -0.090100
     34 C35         -6.3270    -6.2970     4.0940 c3         1 SMR       0.136400
     35 S36         -4.6390    -2.3410     5.8730 sy         1 SMR       1.440200
     36 O37         -6.0460    -2.5260     5.8160 o          1 SMR      -0.640300
     37 O38         -3.8090    -2.9790     6.8340 o          1 SMR      -0.640300
     38 N39         -0.0020    -1.1700     2.1520 n3         1 SMR      -0.718600
     39 H2           1.8900     0.8860    -0.5080 hc         1 SMR       0.054200
     40 H2A          1.8900    -0.8860    -0.5080 hc         1 SMR       0.054200
     41 H3           3.1150    -0.0480     1.4520 hc         1 SMR       0.058200
     42 H3A          1.7020     0.9040     1.9440 hc         1 SMR       0.058200
     43 H4           1.8070    -1.2140     3.2050 h1         1 SMR       0.033200
     44 H4A          1.8030    -2.1230     1.6840 h1         1 SMR       0.033200
     45 H5          -1.5940    -1.2010     0.7930 h1         1 SMR       0.047200
     46 H5A         -0.1650    -2.1210     0.2940 h1         1 SMR       0.047200
     47 H9          -2.4300     0.0100    -2.4070 hc         1 SMR       0.052700
     48 H9A         -2.3280    -1.1420    -1.0650 hc         1 SMR       0.052700
     49 H10         -0.1020    -0.9360    -1.9380 hc         1 SMR       0.058700
     50 H10A        -0.2130     0.8350    -1.9750 hc         1 SMR       0.058700
     51 H11         -1.7270     2.9250     2.0760 ha         1 SMR       0.148000
     52 H12         -4.0690     3.5730     1.8920 ha         1 SMR       0.134000
     53 H17         -4.9710     0.0690    -2.2370 h4         1 SMR       0.058800
     54 H18         -0.5250    -3.1820     2.4140 h1         1 SMR       0.041200
     55 H18A        -0.0240    -2.3430     3.8880 h1         1 SMR       0.041200
     56 H19         -2.6130    -1.9060     2.3560 h1         1 SMR       0.065700
     57 H20         -2.4530    -3.9780     3.7700 h1         1 SMR       0.063700
     58 H20A        -2.1160    -2.9460     5.1670 h1         1 SMR       0.063700
     59 HO21        -1.2590    -0.3810     4.1850 ho         1 SMR       0.414000
     60 H23         -4.5010    -2.5310     2.3580 h1         1 SMR       0.067700
     61 H23A        -5.8830    -2.3930     3.4540 h1         1 SMR       0.067700
     62 H24         -4.3480    -4.9650     2.9350 h1         1 SMR       0.024700
     63 H24A        -5.8790    -4.5380     2.1590 h1         1 SMR       0.024700
     64 H27         -5.8950     2.3480     5.4730 ha         1 SMR       0.130000
     65 H28         -3.7890     3.1740     6.4540 ha         1 SMR       0.126000
     66 H29         -2.0590     1.5770     7.1840 ha         1 SMR       0.130000
     67 H31         -2.4290    -1.5580     8.0090 hc         1 SMR       0.057867
     68 H31A        -2.0330    -1.9060     6.3200 hc         1 SMR       0.057867
     69 H31B        -1.1930    -0.6050     7.1760 hc         1 SMR       0.057867
     70 H32         -6.4130    -0.7730     4.1420 hc         1 SMR       0.057867
     71 H32A        -7.2720     0.6210     4.8120 hc         1 SMR       0.057867
     72 H32B        -7.1290    -0.8680     5.7570 hc         1 SMR       0.057867
     73 H34         -7.3830    -7.7570     5.2660 hc         1 SMR       0.046033
     74 H34A        -7.9660    -6.1000     5.4710 hc         1 SMR       0.046033
     75 H34B        -6.4430    -6.6010     6.2190 hc         1 SMR       0.046033
     76 H35         -6.9530    -6.4600     3.2250 h1         1 SMR       0.017200
     77 H35A        -5.4220    -6.8850     4.0020 h1         1 SMR       0.017200
     78 HN15        -6.4700     2.9380     0.4120 hn         1 SMR       0.330700
     79 C18         -0.5790    -2.2500     2.9630 c3         1 SMR       0.120800
@<TRIPOS>BOND
     1    10     1 1
     2     6     1 1
     3     1     5 1
     4     1     2 1
     5     2     3 1
     6     2    39 1
     7     2    40 1
     8     3     4 1
     9     3    41 1
    10     3    42 1
    11    38     4 1
    12     4    43 1
    13     4    44 1
    14     5    38 1
    15     5    45 1
    16     5    46 1
    17     7     6 1
    18     8     7 ar
    19    11     7 ar
    20    14     8 ar
    21     8     9 1
    22     9    10 1
    23     9    47 1
    24     9    48 1
    25    10    49 1
    26    10    50 1
    27    12    11 ar
    28    11    51 1
    29    13    12 ar
    30    12    52 1
    31    15    13 1
    32    13    14 ar
    33    17    14 1
    34    16    15 1
    35    16    17 2
    36    17    53 1
    37    18    79 1
    38    38    79 1
    39    79    54 1
    40    79    55 1
    41    20    18 1
    42    18    19 1
    43    18    56 1
    44    21    19 1
    45    19    57 1
    46    19    58 1
    47    20    59 1
    48    35    21 1
    49    21    22 1
    50    23    22 1
    51    22    60 1
    52    22    61 1
    53    32    23 1
    54    23    62 1
    55    23    63 1
    56    25    24 ar
    57    24    35 1
    58    24    29 ar
    59    31    25 1
    60    26    25 ar
    61    26    27 ar
    62    26    64 1
    63    27    28 ar
    64    27    65 1
    65    28    29 ar
    66    28    66 1
    67    29    30 1
    68    30    67 1
    69    30    68 1
    70    30    69 1
    71    31    70 1
    72    31    71 1
    73    31    72 1
    74    32    34 1
    75    33    34 1
    76    33    73 1
    77    33    74 1
    78    33    75 1
    79    34    76 1
    80    34    77 1
    81    37    35 2
    82    35    36 2
    83    15    78 1
@<TRIPOS>SUBSTRUCTURE
     1 SMR         1 TEMP              0 ****  ****    0 ROOT
