@<TRIPOS>MOLECULE
SMS
   38    40     1     0     0
SMALL
bcc


@<TRIPOS>ATOM
      1 S2           0.0000     0.0000     0.0000 s6         1 SMS       1.279400
      2 N1           1.6550     0.0000     0.0000 nz         1 SMS      -0.167500
      3 O10         -0.3870     0.0000     1.3670 o          1 SMS      -0.515800
      4 O9          -0.3870    -0.9710    -0.9630 o          1 SMS      -0.515800
      5 O8          -0.4560     1.3400    -0.5590 os         1 SMS      -0.399500
      6 C1          -0.5790     1.1790    -1.9730 c3         1 SMS       0.167400
      7 C2          -1.0360     2.4970    -2.6000 c3         1 SMS       0.337600
      8 C3          -1.4680     2.2520    -4.0530 c3         1 SMS       0.053100
      9 C4          -1.7340     3.5610    -4.8030 c3         1 SMS       0.144100
     10 C5          -0.6810     4.6260    -4.4480 c3         1 SMS       0.137100
     11 C6          -0.4600     4.7090    -2.9470 c3         1 SMS       0.211400
     12 O3          -0.0160     3.4490    -2.4560 os         1 SMS      -0.375600
     13 O5           0.5230     4.1870    -5.1460 os         1 SMS      -0.453500
     14 S1           0.0420     3.3290    -6.3220 s6         1 SMS       1.580000
     15 O7           0.4800     2.0050    -6.0460 o          1 SMS      -0.597800
     16 O6           0.3340     4.0740    -7.4970 o          1 SMS      -0.597800
     17 O4          -1.4900     3.2990    -6.2130 os         1 SMS      -0.424500
     18 O2          -2.7650     1.6230    -3.8690 os         1 SMS      -0.383600
     19 C7          -3.2580     2.0510    -2.5920 c3         1 SMS       0.342600
     20 C9          -4.5560     2.8390    -2.7800 c3         1 SMS      -0.027100
     21 C8          -3.5220     0.8320    -1.7070 c3         1 SMS      -0.027100
     22 O1          -2.2640     2.8930    -1.9740 os         1 SMS      -0.415600
     23 HN11         1.9890    -0.2230    -0.9170 hn         1 SMS       0.325133
     24 HN12         1.9890    -0.6820     0.6520 hn         1 SMS       0.325133
     25 HC11         0.3800     0.8950    -2.3880 h1         1 SMS       0.060200
     26 HC12        -1.3080     0.4060    -2.1860 h1         1 SMS       0.060200
     27 HC3         -0.7770     1.6070    -4.5820 h1         1 SMS       0.133700
     28 HC4         -2.7410     3.9230    -4.6350 h1         1 SMS       0.090700
     29 HC5         -0.9930     5.5910    -4.8280 h1         1 SMS       0.065700
     30 HC61         0.2910     5.4610    -2.7360 h1         1 SMS       0.047200
     31 HC62        -1.3910     4.9760    -2.4610 h1         1 SMS       0.047200
     32 HC91        -5.1850     2.3320    -3.5010 hc         1 SMS       0.027700
     33 HC92        -4.3250     3.8350    -3.1390 hc         1 SMS       0.027700
     34 HC93        -5.0760     2.9090    -1.8320 hc         1 SMS       0.027700
     35 HC81        -4.5880     0.6470    -1.6550 hc         1 SMS       0.027700
     36 HC82        -3.0260    -0.0340    -2.1280 hc         1 SMS       0.027700
     37 HC83        -3.1390     1.0180    -0.7110 hc         1 SMS       0.027700
     38 H13          1.9890     0.8850     0.3290 hn         1 SMS       0.325133
@<TRIPOS>BOND
     1     1     2 1   
     2     1     3 2   
     3     1     4 2   
     4     1     5 1   
     5     2    23 1   
     6     2    24 1   
     7     2    38 1   
     8     5     6 1   
     9     6     7 1   
    10     6    25 1   
    11     6    26 1   
    12     7     8 1   
    13     7    12 1   
    14     7    22 1   
    15     8     9 1   
    16     8    18 1   
    17     8    27 1   
    18     9    10 1   
    19     9    17 1   
    20     9    28 1   
    21    10    11 1   
    22    10    13 1   
    23    10    29 1   
    24    11    12 1   
    25    11    30 1   
    26    11    31 1   
    27    13    14 1   
    28    14    15 2   
    29    14    16 2   
    30    14    17 1   
    31    18    19 1   
    32    19    20 1   
    33    19    21 1   
    34    19    22 1   
    35    20    32 1   
    36    20    33 1   
    37    20    34 1   
    38    21    35 1   
    39    21    36 1   
    40    21    37 1   
@<TRIPOS>SUBSTRUCTURE
     1 SMS         1 TEMP              0 ****  ****    0 ROOT
