@<TRIPOS>MOLECULE
SMX
   48    51     1     0     0
SMALL
bcc


@<TRIPOS>ATOM
      1 C            0.0000     0.0000     0.0000 c          1 SMX       0.625500
      2 N            2.0980     1.2230    -0.5440 ns         1 SMX      -0.167900
      3 O           -0.8350    -0.1910    -0.8590 o          1 SMX      -0.570500
      4 CA           1.5030     0.0000     0.0000 cy         1 SMX      -0.070300
      5 CB           1.3670     0.0000     1.5060 cy         1 SMX       0.080800
      6 NBD         -0.0720     0.2910     1.2920 nj         1 SMX      -0.014000
      7 NBE         -3.9750     1.5500     7.5010 na         1 SMX       0.344600
      8 NAN         -4.6950     3.4820     6.8370 nc         1 SMX       0.025000
      9 NAO         -3.7290     3.1300     6.0670 nc         1 SMX      -0.386000
     10 NAP         -4.9070     2.5770     7.7310 nd         1 SMX      -0.423800
     11 CAA         -3.8180     0.3040     8.2550 c3         1 SMX       0.032600
     12 OAB         -3.0310    -0.2560     2.3690 o          1 SMX      -0.843300
     13 OAC          2.6330     0.2020    -2.4390 o          1 SMX      -0.622100
     14 OAE         -3.0840     1.7200     1.3590 o          1 SMX      -0.843300
     15 OAF          3.6470     2.2520    -3.6920 oh         1 SMX      -0.555800
     16 CAG          6.6680     3.5520    -0.0120 ca         1 SMX      -0.101000
     17 CAH          5.4380     4.1170     0.2660 ca         1 SMX      -0.106000
     18 CAI          6.7930     2.6410    -1.0440 ca         1 SMX      -0.106000
     19 CAJ          4.3320     3.7690    -0.4870 ca         1 SMX      -0.076500
     20 CAK          5.6870     2.2930    -1.7960 ca         1 SMX      -0.076500
     21 CAL         -1.5710     2.0360     4.2150 c3         1 SMX       0.161900
     22 CAM          0.8920     1.6210     3.7460 c3         1 SMX       0.196900
     23 SAR         -1.8170     0.9490     5.6410 ss         1 SMX      -0.430400
     24 SAS          2.0610     1.4550     2.3620 ss         1 SMX      -0.435200
     25 CAT         -2.4270     0.7280     1.9900 c          1 SMX       0.963800
     26 CAU          2.6390     1.2190    -1.7790 c          1 SMX       0.553100
     27 CAV         -0.5220     1.4450     3.3080 c2         1 SMX      -0.283400
     28 CAX         -0.9750     0.8360     2.2230 ce         1 SMX      -0.015600
     29 CAY          4.4570     2.8570    -1.5180 ca         1 SMX      -0.120300
     30 CAZ         -3.2550     1.9570     6.4280 cd         1 SMX       0.426800
     31 CBA          3.2510     2.4770    -2.3380 c3         1 SMX       0.186400
     32 H1           2.0680     2.0720    -0.0140 hn         1 SMX       0.209500
     33 H2           1.9260    -0.9200    -0.3860 h1         1 SMX       0.083700
     34 H3           1.5520    -0.9570     1.9790 h2         1 SMX       0.074700
     35 H4          -3.9780    -0.5400     7.5950 h1         1 SMX       0.029033
     36 H5          -4.5430     0.2760     9.0600 h1         1 SMX       0.029033
     37 H6          -2.8180     0.2550     8.6680 h1         1 SMX       0.029033
     38 H10          7.7580     2.1980    -1.2610 ha         1 SMX       0.101000
     39 H11          3.3680     4.2120    -0.2700 ha         1 SMX       0.116500
     40 H12          5.7850     1.5780    -2.6040 ha         1 SMX       0.116500
     41 H13         -2.4840     2.0810     3.6330 h1         1 SMX       0.083700
     42 H14         -1.3120     3.0300     4.5590 h1         1 SMX       0.083700
     43 H15          1.0040     2.6060     4.1820 h1         1 SMX       0.046200
     44 H16          1.1240     0.8710     4.4920 h1         1 SMX       0.046200
     45 H17          3.1020     2.7620    -4.2680 ho         1 SMX       0.389000
     46 H18          2.5230     3.2790    -2.3030 h1         1 SMX       0.014700
     47 H8           7.5350     3.8250     0.5780 ha         1 SMX       0.097000
     48 H9           5.3400     4.8320     1.0740 ha         1 SMX       0.101000
@<TRIPOS>BOND
     1     1     3 2   
     2     1     4 1   
     3     1     6 1   
     4     2     4 1   
     5     2    26 1   
     6     2    32 1   
     7     4     5 1   
     8     4    33 1   
     9     5     6 1   
    10     5    24 1   
    11     5    34 1   
    12     6    28 1   
    13     7    10 1   
    14     7    11 1   
    15     7    30 1   
    16     8     9 1   
    17     8    10 2   
    18     9    30 2   
    19    11    35 1   
    20    11    36 1   
    21    11    37 1   
    22    12    25 1   
    23    13    26 2   
    24    14    25 1   
    25    15    31 1   
    26    15    45 1   
    27    16    17 ar  
    28    16    18 ar  
    29    16    47 1   
    30    17    19 ar  
    31    17    48 1   
    32    18    20 ar  
    33    18    38 1   
    34    19    29 ar  
    35    19    39 1   
    36    20    29 ar  
    37    20    40 1   
    38    21    23 1   
    39    21    27 1   
    40    21    41 1   
    41    21    42 1   
    42    22    24 1   
    43    22    27 1   
    44    22    43 1   
    45    22    44 1   
    46    23    30 1   
    47    25    28 1   
    48    26    31 1   
    49    27    28 2   
    50    29    31 1   
    51    31    46 1   
@<TRIPOS>SUBSTRUCTURE
     1 SMX         1 TEMP              0 ****  ****    0 ROOT
