@<TRIPOS>MOLECULE
molecule
   48    51     1     0     0
SMALL
bcc


@<TRIPOS>ATOM
      1 C            0.0000     0.0000     0.0000 c          1 SMX       0.708500
      2 N            2.0980     1.2230    -0.5440 ns         1 SMX      -0.554900
      3 O           -0.8350    -0.1910    -0.8590 o          1 SMX      -0.539500
      4 CA           1.5030     0.0000     0.0000 cy         1 SMX       0.028700
      5 CB           1.3670     0.0000     1.5060 cy         1 SMX       0.157800
      6 NBD         -0.0720     0.2910     1.2920 nj         1 SMX      -0.386000
      7 NBE         -3.9750     1.5500     7.5010 na         1 SMX      -0.077400
      8 NAN         -4.6950     3.4820     6.8370 nc         1 SMX      -0.013000
      9 NAO         -3.7290     3.1300     6.0670 nc         1 SMX      -0.415000
     10 NAP         -4.9070     2.5770     7.7310 nd         1 SMX      -0.249800
     11 CAA         -3.8180     0.3040     8.2550 c3         1 SMX       0.056600
     12 OAB         -3.0310    -0.2560     2.3690 o          1 SMX      -0.792300
     13 OAC          2.6330     0.2020    -2.4390 o          1 SMX      -0.583100
     14 OAE         -3.0840     1.7200     1.3590 o          1 SMX      -0.792300
     15 OAF          3.6470     2.2520    -3.6920 oh         1 SMX      -0.573800
     16 CAG          6.6680     3.5520    -0.0120 ca         1 SMX      -0.126000
     17 CAH          5.4380     4.1170     0.2660 ca         1 SMX      -0.133000
     18 CAI          6.7930     2.6410    -1.0440 ca         1 SMX      -0.133000
     19 CAJ          4.3320     3.7690    -0.4870 ca         1 SMX      -0.103000
     20 CAK          5.6870     2.2930    -1.7960 ca         1 SMX      -0.103000
     21 CAL         -1.5710     2.0360     4.2150 c3         1 SMX       0.077900
     22 CAM          0.8920     1.6210     3.7460 c3         1 SMX       0.105900
     23 SAR         -1.8170     0.9490     5.6410 ss         1 SMX      -0.343400
     24 SAS          2.0610     1.4550     2.3620 ss         1 SMX      -0.388200
     25 CAT         -2.4270     0.7280     1.9900 c          1 SMX       0.874800
     26 CAU          2.6390     1.2190    -1.7790 c          1 SMX       0.648100
     27 CAV         -0.5220     1.4450     3.3080 c2         1 SMX      -0.274400
     28 CAX         -0.9750     0.8360     2.2230 ce         1 SMX       0.110400
     29 CAY          4.4570     2.8570    -1.5180 ca         1 SMX      -0.103300
     30 CAZ         -3.2550     1.9570     6.4280 cd         1 SMX       0.575800
     31 CBA          3.2510     2.4770    -2.3380 c3         1 SMX       0.127400
     32 H1           2.0680     2.0720    -0.0140 hn         1 SMX       0.343500
     33 H2           1.9260    -0.9200    -0.3860 h1         1 SMX       0.111700
     34 H3           1.5520    -0.9570     1.9790 h2         1 SMX       0.098700
     35 H4          -3.9780    -0.5400     7.5950 h1         1 SMX       0.060700
     36 H5          -4.5430     0.2760     9.0600 h1         1 SMX       0.060700
     37 H6          -2.8180     0.2550     8.6680 h1         1 SMX       0.060700
     38 H10          7.7580     2.1980    -1.2610 ha         1 SMX       0.128000
     39 H11          3.3680     4.2120    -0.2700 ha         1 SMX       0.142500
     40 H12          5.7850     1.5780    -2.6040 ha         1 SMX       0.142500
     41 H13         -2.4840     2.0810     3.6330 h1         1 SMX       0.104700
     42 H14         -1.3120     3.0300     4.5590 h1         1 SMX       0.104700
     43 H15          1.0040     2.6060     4.1820 h1         1 SMX       0.067700
     44 H16          1.1240     0.8710     4.4920 h1         1 SMX       0.067700
     45 H17          3.1020     2.7620    -4.2680 ho         1 SMX       0.407000
     46 H18          2.5230     3.2790    -2.3030 h1         1 SMX       0.055700
     47 H8           7.5350     3.8250     0.5780 ha         1 SMX       0.123000
     48 H9           5.3400     4.8320     1.0740 ha         1 SMX       0.128000
@<TRIPOS>BOND
     1    16    17 ar
     2    16    18 ar
     3    17    19 ar
     4    18    20 ar
     5    19    29 ar
     6    20    29 ar
     7    29    31 1
     8    31    15 1
     9    31    26 1
    10    13    26 2
    11    26     2 1
    12     2     4 1
    13     4     1 1
    14     4     5 1
    15     3     1 2
    16     1     6 1
    17     5    24 1
    18     5     6 1
    19    24    22 1
    20     6    28 1
    21    28    25 1
    22    28    27 2
    23    22    27 1
    24    12    25 1
    25     8     9 1
    26     8    10 2
    27    25    14 1
    28    27    21 1
    29     9    30 2
    30    10     7 1
    31    30     7 1
    32    30    23 1
    33    21    23 1
    34     7    11 1
    35     2    32 1
    36     4    33 1
    37     5    34 1
    38    11    35 1
    39    11    36 1
    40    11    37 1
    41    16    47 1
    42    17    48 1
    43    18    38 1
    44    19    39 1
    45    20    40 1
    46    21    41 1
    47    21    42 1
    48    22    43 1
    49    22    44 1
    50    15    45 1
    51    31    46 1
@<TRIPOS>SUBSTRUCTURE
     1 SMX         1 TEMP              0 ****  ****    0 ROOT
