@<TRIPOS>MOLECULE
molecule
   57    61     1     0     0
SMALL
bcc


@<TRIPOS>ATOM
      1 N1           0.0000     0.0000     0.0000 nb         1 SMY      -0.780000
      2 C2           1.3170     0.0000     0.0000 ca         1 SMY       0.703900
      3 N3           2.0040     0.0000     1.1180 nb         1 SMY      -0.718000
      4 C4           1.4060     0.0010     2.3160 ca         1 SMY       0.469600
      5 C5           0.0350     0.0030     2.3630 ca         1 SMY      -0.303900
      6 C6          -0.6680     0.0020     1.1450 ca         1 SMY       0.634200
      7 C7           2.1130     0.0010     3.6630 c3         1 SMY      -0.023600
      8 S8           0.8060     0.5360     4.8320 ss         1 SMY      -0.322200
      9 C9          -0.5790     0.0030     3.7540 c3         1 SMY       0.097700
     10 C10         -1.7360     1.0010     3.8320 c3         1 SMY      -0.064100
     11 N11         -2.0530     0.0030     1.1410 nh         1 SMY      -0.717300
     12 C12         -2.5800    -1.2480     0.5790 c3         1 SMY       0.151800
     13 C13         -4.1010    -1.2850     0.7580 c3         1 SMY       0.093500
     14 N14         -4.6690    -0.0570     0.1840 n          1 SMY      -0.453800
     15 C15         -4.0990     1.2350     0.5970 c3         1 SMY       0.093500
     16 C16         -2.5780     1.1720     0.4230 c3         1 SMY       0.151800
     17 C17         -5.6860    -0.1130    -0.7000 c          1 SMY       0.639100
     18 O18         -6.1440    -1.1860    -1.0310 o          1 SMY      -0.606100
     19 C19         -6.2530     1.1590    -1.2780 c3         1 SMY       0.024500
     20 C20         -5.3490     1.6530    -2.4090 c3         1 SMY      -0.010200
     21 C21         -5.8470     2.9870    -2.9020 cc         1 SMY      -0.240400
     22 C22         -6.6660     3.1960    -3.9460 cd         1 SMY      -0.091100
     23 N23         -6.8990     4.5360    -4.0940 na         1 SMY      -0.158400
     24 C24         -6.2190     5.2400    -3.1260 ca         1 SMY      -0.033200
     25 C25         -5.5360     4.3000    -2.3330 ca         1 SMY      -0.104800
     26 C26         -6.1090     6.5940    -2.8250 ca         1 SMY      -0.125000
     27 C27         -5.3300     6.9980    -1.7630 ca         1 SMY      -0.089000
     28 C28         -4.6520     6.0660    -0.9870 ca         1 SMY      -0.124000
     29 C29         -4.7580     4.7310    -1.2560 ca         1 SMY      -0.103000
     30 N30         -7.5990     0.8980    -1.8060 nz         1 SMY      -0.791600
     31 H2           1.8460    -0.0020    -0.9450 h5         1 SMY       0.072100
     32 H7           2.9340     0.7080     3.6620 h1         1 SMY       0.103200
     33 H7A          2.4590    -0.9950     3.9100 h1         1 SMY       0.103200
     34 H9          -0.9070    -0.9940     4.0240 h1         1 SMY       0.089700
     35 H10         -1.5470     1.8280     3.1580 hc         1 SMY       0.045367
     36 H10A        -1.8240     1.3740     4.8460 hc         1 SMY       0.045367
     37 H10B        -2.6580     0.5070     3.5480 hc         1 SMY       0.045367
     38 H12         -2.3410    -1.2980    -0.4770 h1         1 SMY       0.067450
     39 H12A        -2.1360    -2.0900     1.0950 h1         1 SMY       0.067450
     40 H13         -4.3400    -1.3370     1.8140 h1         1 SMY       0.073450
     41 H13A        -4.5060    -2.1480     0.2440 h1         1 SMY       0.073450
     42 H15         -4.3380     1.4220     1.6360 h1         1 SMY       0.073450
     43 H15A        -4.5030     2.0250    -0.0240 h1         1 SMY       0.073450
     44 H16         -2.1310     2.0720     0.8280 h1         1 SMY       0.067450
     45 H16A        -2.3380     1.0850    -0.6300 h1         1 SMY       0.067450
     46 H19         -6.3090     1.9140    -0.5030 hx         1 SMY       0.128700
     47 H20         -5.3640     0.9380    -3.2220 hc         1 SMY       0.092200
     48 H20A        -4.3350     1.7600    -2.0400 hc         1 SMY       0.092200
     49 H22         -7.0780     2.4190    -4.5790 h4         1 SMY       0.161000
     50 HN23        -7.4780     4.9440    -4.8010 hn         1 SMY       0.316700
     51 H26         -6.6340     7.3280    -3.4240 ha         1 SMY       0.145000
     52 H27         -5.2360     8.0530    -1.5380 ha         1 SMY       0.153000
     53 H28         -4.0430     6.4000    -0.1560 ha         1 SMY       0.146000
     54 H29         -4.2260     4.0100    -0.6470 ha         1 SMY       0.120000
     55 HN30        -7.5280     0.5380    -2.7370 hn         1 SMY       0.460800
     56 HN3A        -8.0620     0.2290    -1.2230 hn         1 SMY       0.460800
     57 H303        -8.1240     1.7510    -1.8170 hn         1 SMY       0.460800
@<TRIPOS>BOND
     1     1     2 ar
     2     1     6 ar
     3     2     3 ar
     4     3     4 ar
     5     4     5 ar
     6     4     7 1
     7     5     6 ar
     8     5     9 1
     9     6    11 1
    10     7     8 1
    11     8     9 1
    12     9    10 1
    13    11    12 1
    14    11    16 1
    15    12    13 1
    16    13    14 1
    17    14    15 1
    18    14    17 1
    19    15    16 1
    20    17    18 2
    21    17    19 1
    22    19    20 1
    23    19    30 1
    24    20    21 1
    25    21    22 2
    26    21    25 1
    27    22    23 1
    28    23    24 1
    29    24    25 ar
    30    24    26 ar
    31    25    29 ar
    32    26    27 ar
    33    27    28 ar
    34    28    29 ar
    35     2    31 1
    36     7    32 1
    37     7    33 1
    38     9    34 1
    39    10    35 1
    40    10    36 1
    41    10    37 1
    42    12    38 1
    43    12    39 1
    44    13    40 1
    45    13    41 1
    46    15    42 1
    47    15    43 1
    48    16    44 1
    49    16    45 1
    50    19    46 1
    51    20    47 1
    52    20    48 1
    53    22    49 1
    54    23    50 1
    55    26    51 1
    56    27    52 1
    57    28    53 1
    58    29    54 1
    59    30    55 1
    60    30    56 1
    61    57    30 1
@<TRIPOS>SUBSTRUCTURE
     1 SMY         1 TEMP              0 ****  ****    0 ROOT
