@<TRIPOS>MOLECULE
SMZ
   28    27     1     0     0
SMALL
bcc


@<TRIPOS>ATOM
      1 C8           0.0000     0.0000     0.0000 c3         1 SMZ       0.110000
      2 S1           1.8100     0.0000     0.0000 ss         1 SMZ      -0.374300
      3 C2           6.9470     0.0000     5.6590 c3         1 SMZ      -0.204500
      4 C4           5.1720    -0.0000     3.9010 c3         1 SMZ      -0.071400
      5 C5           3.6620    -0.0010     3.6480 c3         1 SMZ       0.198800
      6 C1           7.2090     0.1230     7.1380 c          1 SMZ       0.956600
      7 N2           7.5270    -1.2550     5.1620 nz         1 SMZ       0.081400
      8 C3           5.4380    -0.0000     5.4070 c3         1 SMZ      -0.036400
      9 N6           3.4090     0.0000     2.2050 nu         1 SMZ      -0.449200
     10 C7           2.1160     0.0000     1.7350 c2         1 SMZ       0.519100
     11 N8           1.1160    -0.0010     2.5730 n2         1 SMZ      -0.791100
     12 H8          -0.3610     0.0010    -1.0210 h1         1 SMZ       0.043367
     13 H8A         -0.3610     0.8840     0.5110 h1         1 SMZ       0.043367
     14 H8B         -0.3610    -0.8850     0.5100 h1         1 SMZ       0.043367
     15 H2           7.3990     0.8370     5.1410 hx         1 SMZ       0.087700
     16 H4           5.5990    -0.8950     3.4650 hc         1 SMZ       0.009700
     17 H4A          5.8570     0.8250     3.7500 hc         1 SMZ       0.009700
     18 H5           3.2220     0.8840     4.0930 h1         1 SMZ       0.035200
     19 H5A          3.2220    -0.8860     4.0920 h1         1 SMZ       0.035200
     20 HN2          8.4130    -1.4100     5.6000 hn         1 SMZ       0.211133
     21 HN2A         6.9110    -2.0150     5.3760 hn         1 SMZ       0.211133
     22 H3           4.9970     0.8840     5.8520 hc         1 SMZ       0.057200
     23 H3A          4.9980    -0.8850     5.8520 hc         1 SMZ       0.057200
     24 HN6          4.1750     0.0370     1.5620 hn         1 SMZ       0.294800
     25 HN8          0.1760    -0.0010     2.2310 hn         1 SMZ       0.342400
     26 O2           7.1430     1.3250     7.7340 o          1 SMZ      -0.815800
     27 H23          7.6510    -1.1960     4.1710 hn         1 SMZ       0.211133
     28 O1           7.4790    -0.8590     7.7880 o          1 SMZ      -0.815800
@<TRIPOS>BOND
     1     1     2 1   
     2     1    12 1   
     3     1    13 1   
     4     1    14 1   
     5     2    10 1   
     6     3     6 1   
     7     3     7 1   
     8     3     8 1   
     9     3    15 1   
    10     4     5 1   
    11     4     8 1   
    12     4    16 1   
    13     4    17 1   
    14     5     9 1   
    15     5    18 1   
    16     5    19 1   
    17     6    26 1   
    18     6    28 1   
    19     7    20 1   
    20     7    21 1   
    21     7    27 1   
    22     8    22 1   
    23     8    23 1   
    24     9    10 1   
    25     9    24 1   
    26    10    11 2   
    27    11    25 1   
@<TRIPOS>SUBSTRUCTURE
     1 SMZ         1 TEMP              0 ****  ****    0 ROOT
