@<TRIPOS>MOLECULE
SN0
   28    27     1     0     0
SMALL
bcc


@<TRIPOS>ATOM
      1 CA           1.5070     0.0000     0.0000 c3         1 SN0      -0.094300
      2 C            0.0000     0.0000     0.0000 c          1 SN0       0.978600
      3 OXT         -0.6720    -1.0060     0.5810 o          1 SN0      -0.899800
      4 O           -0.6030     0.9060    -0.5220 o          1 SN0      -0.899800
      5 CB           2.0170     0.0000     1.4430 c3         1 SN0      -0.023400
      6 CG           3.5420    -0.1260     1.4450 c3         1 SN0      -0.043400
      7 CD           4.0520    -0.1270     2.8870 c3         1 SN0       0.005900
      8 N1           1.9950     1.1960    -0.6900 ns         1 SN0      -0.172900
      9 C1           2.1250     1.1940    -2.0320 c          1 SN0       0.570100
     10 O1           1.8350     0.2020    -2.6680 o          1 SN0      -0.675100
     11 C2           2.6260     2.4250    -2.7420 c3         1 SN0      -0.084400
     12 C3           2.6780     2.1590    -4.2480 c3         1 SN0      -0.116400
     13 C4           3.1810     3.3890    -4.9580 c          1 SN0       0.981600
     14 OD1          3.3090     3.3880    -6.2950 o          1 SN0      -0.925800
     15 OD2          3.4680     4.3780    -4.3250 o          1 SN0      -0.925800
     16 HA           1.8680    -0.8850    -0.5110 h1         1 SN0       0.052700
     17 HB1          1.7310     0.9260     1.9270 hc         1 SN0       0.021700
     18 HB2          1.5850    -0.8360     1.9790 hc         1 SN0       0.021700
     19 HG1          3.9740     0.7100     0.9090 hc         1 SN0       0.012200
     20 HG2          3.8280    -1.0520     0.9600 hc         1 SN0       0.012200
     21 HD1A         3.7650     0.7970     3.3720 hc         1 SN0      -0.012633
     22 HD2          3.6220    -0.9650     3.4220 hc         1 SN0      -0.012633
     23 HD3          5.1320    -0.2140     2.8880 hc         1 SN0      -0.012633
     24 HN1          2.1960     2.0270    -0.1700 hn         1 SN0       0.152500
     25 H21          3.6190     2.6690    -2.3840 hc         1 SN0       0.024700
     26 H22          1.9580     3.2540    -2.5440 hc         1 SN0       0.024700
     27 H31          1.6850     1.9160    -4.6060 hc         1 SN0       0.019700
     28 H32          3.3460     1.3290    -4.4450 hc         1 SN0       0.019700
@<TRIPOS>BOND
     1     1     2 1   
     2     1     5 1   
     3     1     8 1   
     4     1    16 1   
     5     2     3 1   
     6     2     4 1   
     7     5     6 1   
     8     5    17 1   
     9     5    18 1   
    10     6     7 1   
    11     6    19 1   
    12     6    20 1   
    13     7    21 1   
    14     7    22 1   
    15     7    23 1   
    16     8     9 1   
    17     8    24 1   
    18     9    10 2   
    19     9    11 1   
    20    11    12 1   
    21    11    25 1   
    22    11    26 1   
    23    12    13 1   
    24    12    27 1   
    25    12    28 1   
    26    13    14 1   
    27    13    15 1   
@<TRIPOS>SUBSTRUCTURE
     1 SN0         1 TEMP              0 ****  ****    0 ROOT
