@<TRIPOS>MOLECULE
molecule
   20    20     1     0     0
SMALL
bcc


@<TRIPOS>ATOM
      1 CA2          0.0000     0.0000     0.0000 ce         1 SN1      -0.133200
      2 CB2          1.3520     0.0000     0.0000 cf         1 SN1      -0.171200
      3 CG           2.0850     0.0000     1.2700 ca         1 SN1      -0.027800
      4 CD1          3.4900    -0.0040     1.2740 ca         1 SN1       0.104100
      5 CE1          4.1700     0.0010     2.4790 ca         1 SN1      -0.206000
      6 CD2          1.3880    -0.0020     2.4850 ca         1 SN1      -0.115000
      7 CE2          2.0730    -0.0020     3.6660 ca         1 SN1      -0.162000
      8 CZ           3.4650    -0.0010     3.6730 ca         1 SN1       0.078100
      9 OH1          4.1340    -0.0000     4.8540 oh         1 SN1      -0.531100
     10 OH2          4.1760    -0.0030     0.1030 oh         1 SN1      -0.504100
     11 C2          -0.7080    -0.0000    -1.2260 c          1 SN1       0.858800
     12 O2          -0.1000     0.0000    -2.2800 o          1 SN1      -0.840800
     13 O1          -2.0580    -0.0020    -1.2260 o          1 SN1      -0.840800
     14 HA2         -0.5420     0.0000     0.9380 ha         1 SN1       0.101000
     15 HB2          1.8940    -0.0000    -0.9380 ha         1 SN1       0.167000
     16 HE1          5.2540    -0.0000     2.4900 ha         1 SN1       0.128000
     17 HD2          0.3050    -0.0030     2.4880 ha         1 SN1       0.152000
     18 HE2          1.5300    -0.0040     4.6030 ha         1 SN1       0.127000
     19 HH1          4.3280     0.8880     5.1050 ho         1 SN1       0.406000
     20 HH2          4.7170    -0.7730     0.0550 ho         1 SN1       0.409000
@<TRIPOS>BOND
     1     1     2 2
     2     1    11 1
     3     1    14 1
     4     2     3 1
     5     2    15 1
     6     3     4 ar
     7     3     6 ar
     8     4     5 ar
     9     4    10 1
    10     5     8 ar
    11     5    16 1
    12     6     7 ar
    13     6    17 1
    14     7     8 ar
    15     7    18 1
    16     8     9 1
    17     9    19 1
    18    10    20 1
    19    11    12 1
    20    11    13 1
@<TRIPOS>SUBSTRUCTURE
     1 SN1         1 TEMP              0 ****  ****    0 ROOT
