@<TRIPOS>MOLECULE
SN1
   20    20     1     0     0
SMALL
bcc


@<TRIPOS>ATOM
      1 CA2         0.3830    0.5310   -0.6150 ce        1 SN1     -0.141200
      2 CB2         1.4770    0.9840    0.0040 cf        1 SN1     -0.195200
      3 CG          2.1160    0.4390    1.1900 ca        1 SN1     -0.104800
      4 CD1         3.5210    0.4820    1.3310 ca        1 SN1      0.135100
      5 CE1         4.1630    0.0370    2.4940 ca        1 SN1     -0.201000
      6 CD2         1.3650   -0.1050    2.2410 ca        1 SN1     -0.049000
      7 CE2         1.9790   -0.5580    3.4050 ca        1 SN1     -0.245000
      8 CZ          3.3720   -0.4750    3.5280 ca        1 SN1      0.118100
      9 OH1         4.0390   -0.8920    4.6660 oh        1 SN1     -0.518100
     10 OH2         4.3560    0.9730    0.3470 oh        1 SN1     -0.523100
     11 C2         -0.4590   -0.6830   -0.2970 c         1 SN1      0.897800
     12 O2         -0.3730   -1.6690   -1.0790 o         1 SN1     -0.831300
     13 O1         -1.2440   -0.6300    0.6960 o         1 SN1     -0.831300
     14 HA2         0.0120    1.0740   -1.5030 ha        1 SN1      0.098000
     15 HB2         1.9730    1.8950   -0.3840 ha        1 SN1      0.081000
     16 HE1         5.2540    0.0870    2.5870 ha        1 SN1      0.145000
     17 HD2         0.2640   -0.1880    2.1180 ha        1 SN1      0.208000
     18 HE2         1.3750   -0.9850    4.2150 ha        1 SN1      0.124000
     19 HH1         3.3800   -1.2840    5.2540 ho        1 SN1      0.408000
     20 HH2         3.8490    1.0020   -0.4780 ho        1 SN1      0.426000
@<TRIPOS>BOND
     1    1    2 2   
     2    1   11 1   
     3    1   14 1   
     4    2    3 1   
     5    2   15 1   
     6    3    4 ar  
     7    3    6 ar  
     8    4    5 ar  
     9    4   10 1   
    10    5    8 ar  
    11    5   16 1   
    12    6    7 ar  
    13    6   17 1   
    14    7    8 ar  
    15    7   18 1   
    16    8    9 1   
    17    9   19 1   
    18   10   20 1   
    19   11   12 1   
    20   11   13 1   
@<TRIPOS>SUBSTRUCTURE
     1 SN1         1 TEMP              0 ****  ****    0 ROOT
