@<TRIPOS>MOLECULE
SN2
   35    35     1     0     0
SMALL
bcc


@<TRIPOS>ATOM
      1 C1           0.0000     0.0000     0.0000 ca         1 SN2       0.243600
      2 C2           1.3950     0.0000     0.0000 ca         1 SN2      -0.106000
      3 C3           2.0920     0.0000     1.2070 ca         1 SN2      -0.093600
      4 C4           1.3950    -0.0000     2.4160 ca         1 SN2      -0.435200
      5 C5           0.0010    -0.0000     2.4160 ca         1 SN2       0.115000
      6 C6          -0.6980    -0.0000     1.2090 ca         1 SN2      -0.422200
      7 C7          -1.0380    -1.2490    -1.8780 c3         1 SN2       0.188800
      8 C8          -1.0500     1.2510    -1.8690 c3         1 SN2       0.188800
      9 C9           0.1080    -1.8350    -2.6860 c3         1 SN2       0.010500
     10 C10          0.0620     1.8110    -2.7400 c3         1 SN2       0.010500
     11 C13          3.5500    -0.0010     1.1680 c          1 SN2       0.361700
     12 O1           1.4160    -0.0020     4.7220 o          1 SN2      -0.422000
     13 O2          -2.7470     0.0020     0.1520 o          1 SN2      -0.401000
     14 O3           3.3370    -0.0020     3.6600 o          1 SN2      -0.422000
     15 O4           4.1930    -1.0640     1.1340 o          1 SN2      -0.352100
     16 O5          -2.7030     0.0030     2.3460 o          1 SN2      -0.401000
     17 N1           2.0840    -0.0010     3.6610 no         1 SN2       1.011200
     18 N2          -2.1200     0.0020     1.2370 no         1 SN2       0.994200
     19 N3          -0.6840     0.0000    -1.2370 nh         1 SN2      -0.469000
     20 N4           4.1950     1.2300     1.1490 nz         1 SN2       0.206600
     21 Cl1         -0.4210     3.3500    -3.4960 cl         1 SN2      -0.061900
     22 Cl2         -0.3650    -3.3660    -3.4630 cl         1 SN2      -0.061900
     23 HC2          1.9360     0.0000    -0.9380 ha         1 SN2       0.140000
     24 HC5         -0.5410    -0.0010     3.3540 ha         1 SN2       0.189000
     25 HC71        -1.3290    -1.9620    -1.1160 h1         1 SN2       0.044200
     26 HC72        -1.8800    -1.0770    -2.5370 h1         1 SN2       0.044200
     27 HC81        -1.2900     1.9740    -1.0990 h1         1 SN2       0.044200
     28 HC82        -1.9280     1.0890    -2.4820 h1         1 SN2       0.044200
     29 HC91         0.4010    -1.1250    -3.4500 h1         1 SN2       0.014700
     30 HC92         0.9490    -2.0160    -2.0280 h1         1 SN2       0.014700
     31 H101         0.2990     1.0940    -3.5170 h1         1 SN2       0.014700
     32 H102         0.9410     1.9770    -2.1300 h1         1 SN2       0.014700
     33 HN41         4.4940     1.4360     0.2170 hn         1 SN2       0.249800
     34 HN42         4.9900     1.1990     1.7560 hn         1 SN2       0.249800
     35 H43          3.5640     1.9410     1.4620 hn         1 SN2       0.249800
@<TRIPOS>BOND
     1     1     2 ar  
     2     1     6 ar  
     3     1    19 1   
     4     2     3 ar  
     5     2    23 1   
     6     3     4 ar  
     7     3    11 1   
     8     4     5 ar  
     9     4    17 1   
    10     5     6 ar  
    11     5    24 1   
    12     6    18 1   
    13     7     9 1   
    14     7    19 1   
    15     7    25 1   
    16     7    26 1   
    17     8    10 1   
    18     8    19 1   
    19     8    27 1   
    20     8    28 1   
    21     9    22 1   
    22     9    29 1   
    23     9    30 1   
    24    10    21 1   
    25    10    31 1   
    26    10    32 1   
    27    11    15 2   
    28    11    20 1   
    29    12    17 1   
    30    13    18 1   
    31    14    17 1   
    32    16    18 1   
    33    20    33 1   
    34    20    34 1   
    35    20    35 1   
@<TRIPOS>SUBSTRUCTURE
     1 SN2         1 TEMP              0 ****  ****    0 ROOT
