@<TRIPOS>MOLECULE
molecule
   30    30     1     0     0
SMALL
bcc


@<TRIPOS>ATOM
      1 C1           0.0000     0.0000     0.0000 c3         1 SN5       0.338900
      2 S7           1.7680     0.1090    -2.8700 s          1 SN5      -0.467400
      3 C2           1.5310     0.0000     0.0000 c3         1 SN5       0.074700
      4 C3           2.0340     0.0000     1.4470 c3         1 SN5       0.117100
      5 C4           1.4530     1.2140     2.1780 c3         1 SN5       0.100100
      6 C5          -0.0750     1.1670     2.0940 c3         1 SN5       0.154100
      7 C6          -0.6620     2.4080     2.7700 c3         1 SN5       0.152400
      8 C7           2.1490    -1.1980    -2.0300 cs         1 SN5       0.399400
      9 C8           2.6520    -2.4290    -2.7380 c3         1 SN5      -0.137100
     10 N2           2.0200    -1.1970    -0.6880 ns         1 SN5      -0.490900
     11 O3           3.4610     0.0740     1.4570 oh         1 SN5      -0.593800
     12 O4           1.8570     1.1850     3.5480 oh         1 SN5      -0.604800
     13 O5          -0.4750     1.1380     0.7230 os         1 SN5      -0.424600
     14 O6          -2.0870     2.3080     2.7950 oh         1 SN5      -0.600800
     15 O1          -0.4780     0.0560    -1.3450 oh         1 SN5      -0.543800
     16 H81C         2.0040    -3.2670    -2.5120 hc         1 SN5       0.062700
     17 H82C         2.6560    -2.2540    -3.8070 hc         1 SN5       0.062700
     18 H83C         3.6590    -2.6510    -2.4050 hc         1 SN5       0.062700
     19 H2           2.2610    -2.0130    -0.1620 hn         1 SN5       0.306500
     20 HA           1.8910     0.8870    -0.5070 h1         1 SN5       0.133700
     21 H1          -0.3590    -0.9040     0.4780 h2         1 SN5       0.018700
     22 H3           1.7100    -0.9080     1.9420 h1         1 SN5       0.043700
     23 HB          -1.4150    -0.0480    -1.3510 ho         1 SN5       0.403000
     24 HC           3.8050    -0.5710     2.0520 ho         1 SN5       0.410000
     25 H4           1.8120     2.1220     1.7090 h1         1 SN5       0.067700
     26 HD           2.5500     1.8100     3.6850 ho         1 SN5       0.416000
     27 H5          -0.4350     0.2750     2.5920 h1         1 SN5       0.058700
     28 H61C        -0.2870     2.4780     3.7830 h1         1 SN5       0.037700
     29 H62C        -0.3710     3.2920     2.2150 h1         1 SN5       0.037700
     30 H6          -2.4450     3.0510     3.2530 ho         1 SN5       0.405000
@<TRIPOS>BOND
     1     2     8 2
     2     8     9 1
     3     8    10 1
     4    10     3 1
     5     3     1 1
     6     3     4 1
     7     1    15 1
     8     1    13 1
     9     4    11 1
    10     4     5 1
    11     5    12 1
    12     5     6 1
    13     6    13 1
    14     6     7 1
    15     7    14 1
    16     9    16 1
    17     9    17 1
    18     9    18 1
    19    10    19 1
    20     3    20 1
    21     1    21 1
    22     4    22 1
    23    15    23 1
    24    11    24 1
    25     5    25 1
    26    12    26 1
    27     6    27 1
    28     7    28 1
    29     7    29 1
    30    14    30 1
@<TRIPOS>SUBSTRUCTURE
     1 SN5         1 TEMP              0 ****  ****    0 ROOT
