@<TRIPOS>MOLECULE
molecule
   62    66     1     0     0
SMALL
bcc


@<TRIPOS>ATOM
      1 C1           0.0000     0.0000     0.0000 ca         1 SN6      -0.033000
      2 C2           1.3620     0.0000     0.0000 ca         1 SN6      -0.158000
      3 C3           2.0590     0.0000     1.2210 ca         1 SN6       0.042700
      4 C4           1.3260    -0.0060     2.4310 ca         1 SN6      -0.121000
      5 C5          -0.0760     0.0010     2.3950 ca         1 SN6      -0.078000
      6 C6          -0.7180     0.0000     1.1930 ca         1 SN6      -0.105000
      7 N7           3.3960    -0.0000     1.2500 na         1 SN6       0.006900
      8 C8           4.0610    -0.0010     2.3810 ca         1 SN6       0.045700
      9 C9           3.4160    -0.0010     3.6100 ca         1 SN6      -0.284000
     10 C10          2.0310     0.0000     3.6590 ca         1 SN6       0.306600
     11 N11          1.3560    -0.0000     4.8710 nu         1 SN6      -0.609000
     12 C12          2.0620     0.1670     6.0590 ca         1 SN6       0.132600
     13 C13          1.7130    -0.5760     7.1840 ca         1 SN6      -0.155000
     14 C14          2.4070    -0.4130     8.3600 ca         1 SN6      -0.055500
     15 C15          3.4640     0.5000     8.4250 ca         1 SN6      -0.147600
     16 C16          3.8080     1.2480     7.2960 ca         1 SN6      -0.055500
     17 C17          3.1130     1.0760     6.1210 ca         1 SN6      -0.155000
     18 C18          4.2110     0.6770     9.6850 c          1 SN6       0.678700
     19 O19          3.9070     0.0300    10.6690 o          1 SN6      -0.583100
     20 N20          5.2300     1.5580     9.7460 ns         1 SN6      -0.474100
     21 C21          6.0110     1.6450    10.9050 ca         1 SN6       0.059600
     22 C22          6.5440     2.8670    11.2950 ca         1 SN6      -0.111500
     23 C23          7.3140     2.9530    12.4360 ca         1 SN6      -0.133500
     24 C24          7.5590     1.8150    13.1950 ca         1 SN6      -0.027200
     25 C25          7.0340     0.5910    12.8020 ca         1 SN6      -0.133500
     26 C26          6.2570     0.5070    11.6630 ca         1 SN6      -0.111500
     27 N27          8.3410     1.9010    14.3530 nu         1 SN6      -0.321200
     28 C28          8.1250     1.0180    15.4060 cc         1 SN6       0.245700
     29 C29          6.8470     0.5310    15.6800 cc         1 SN6      -0.201000
     30 C30          6.6750    -0.3480    16.7300 cd         1 SN6       0.012500
     31 N31          7.7000    -0.7190    17.4750 na         1 SN6      -0.200200
     32 C32          8.9240    -0.2810    17.2480 cd         1 SN6       0.012500
     33 C33          9.1800     0.5950    16.2150 cc         1 SN6      -0.201000
     34 C34          7.4720    -1.6490    18.5840 c3         1 SN6       0.160100
     35 C35          4.1380    -0.0010    -0.0140 c3         1 SN6      -0.010400
     36 H1          -0.5330    -0.0000    -0.9430 ha         1 SN6       0.172000
     37 H2           1.9060    -0.0000    -0.9370 ha         1 SN6       0.165000
     38 H5          -0.6450     0.0010     3.3170 ha         1 SN6       0.150000
     39 H6          -1.8010     0.0000     1.1650 ha         1 SN6       0.170000
     40 H8           5.1440    -0.0020     2.3560 h4         1 SN6       0.195000
     41 H9           3.9920    -0.0010     4.5270 ha         1 SN6       0.195000
     42 HN1          0.3670    -0.1510     4.8930 hn         1 SN6       0.477800
     43 H13          0.8930    -1.2830     7.1330 ha         1 SN6       0.152000
     44 H14          2.1370    -0.9920     9.2350 ha         1 SN6       0.159000
     45 H16          4.6270     1.9560     7.3430 ha         1 SN6       0.159000
     46 H17          3.3790     1.6560     5.2450 ha         1 SN6       0.152000
     47 HN2          5.4520     2.1220     8.9490 hn         1 SN6       0.332500
     48 H22          6.3530     3.7540    10.7030 ha         1 SN6       0.162000
     49 H23          7.7260     3.9070    12.7420 ha         1 SN6       0.144000
     50 H25          7.2250    -0.2960    13.3940 ha         1 SN6       0.144000
     51 H26          5.8470    -0.4470    11.3560 ha         1 SN6       0.162000
     52 HN7          9.0460     2.6080    14.4290 hn         1 SN6       0.322700
     53 H29          6.0020     0.8320    15.0720 ha         1 SN6       0.197000
     54 H30          5.6870    -0.7310    16.9500 h4         1 SN6       0.204000
     55 H32          9.7360    -0.6130    17.8830 h4         1 SN6       0.204000
     56 H33         10.1880     0.9510    16.0340 ha         1 SN6       0.197000
     57 H341         8.1240    -2.5070    18.4760 h1         1 SN6       0.092700
     58 H342         7.6840    -1.1510    19.5230 h1         1 SN6       0.092700
     59 H343         6.4400    -1.9770    18.5750 h1         1 SN6       0.092700
     60 H351         5.2010     0.0040     0.1910 h1         1 SN6       0.088033
     61 H352         3.8760     0.8810    -0.5870 h1         1 SN6       0.088033
     62 H353         3.8830    -0.8880    -0.5810 h1         1 SN6       0.088033
@<TRIPOS>BOND
     1     1     2 ar
     2     1     6 ar
     3     1    36 1
     4     2     3 ar
     5     2    37 1
     6     3     4 ar
     7     3     7 1
     8     4     5 ar
     9     4    10 ar
    10     5     6 ar
    11     5    38 1
    12     6    39 1
    13     7     8 2
    14     7    35 1
    15     8     9 ar
    16     8    40 1
    17     9    10 ar
    18     9    41 1
    19    10    11 1
    20    11    12 1
    21    11    42 1
    22    12    13 ar
    23    12    17 ar
    24    13    14 ar
    25    13    43 1
    26    14    15 ar
    27    14    44 1
    28    15    16 ar
    29    15    18 1
    30    16    17 ar
    31    16    45 1
    32    17    46 1
    33    18    19 2
    34    18    20 1
    35    20    21 1
    36    20    47 1
    37    21    22 ar
    38    21    26 ar
    39    22    23 ar
    40    22    48 1
    41    23    24 ar
    42    23    49 1
    43    24    25 ar
    44    24    27 1
    45    25    26 ar
    46    25    50 1
    47    26    51 1
    48    27    28 2
    49    27    52 1
    50    28    29 1
    51    28    33 1
    52    29    30 2
    53    29    53 1
    54    30    31 1
    55    30    54 1
    56    31    32 1
    57    31    34 1
    58    32    33 2
    59    32    55 1
    60    33    56 1
    61    34    57 1
    62    34    58 1
    63    34    59 1
    64    35    60 1
    65    35    61 1
    66    35    62 1
@<TRIPOS>SUBSTRUCTURE
     1 SN6         1 TEMP              0 ****  ****    0 ROOT
