@<TRIPOS>MOLECULE
molecule
   66    70     1     0     0
SMALL
bcc


@<TRIPOS>ATOM
      1 C1           0.0000     0.0000     0.0000 ca         1 SN7      -0.106000
      2 C2           1.3600     0.0000     0.0000 ca         1 SN7      -0.109000
      3 C3           2.0630     0.0000     1.2180 ca         1 SN7      -0.021300
      4 C4           1.3400    -0.0040     2.4340 ca         1 SN7      -0.054000
      5 C5          -0.0620    -0.0010     2.4110 ca         1 SN7      -0.205000
      6 C6          -0.7200    -0.0010     1.2000 ca         1 SN7       0.231600
      7 N7           3.4010     0.0010     1.2370 na         1 SN7       0.024900
      8 C8           4.0750     0.0020     2.3640 ca         1 SN7       0.024700
      9 C9           3.4380     0.0020     3.5980 ca         1 SN7      -0.277000
     10 C10          2.0540     0.0010     3.6560 ca         1 SN7       0.291600
     11 N11          1.3890     0.0010     4.8750 nu         1 SN7      -0.614000
     12 C12          2.1030    -0.1710     6.0570 ca         1 SN7       0.197600
     13 C13          1.7290     0.5310     7.2030 ca         1 SN7      -0.216000
     14 C14          2.4200     0.3710     8.3680 ca         1 SN7      -0.016000
     15 C15          3.5130    -0.5020     8.4210 ca         1 SN7      -0.261600
     16 C16          3.8970    -1.2090     7.2690 ca         1 SN7       0.294600
     17 C17          3.1840    -1.0410     6.0910 ca         1 SN7      -0.272000
     18 C18          4.2580    -0.6760     9.6780 c          1 SN7       0.706700
     19 O19          5.2740    -1.3450     9.6950 o          1 SN7      -0.630100
     20 N20          3.8170    -0.0920    10.8090 ns         1 SN7      -0.469100
     21 C21          4.5570    -0.2100    11.9930 ca         1 SN7       0.060600
     22 C22          3.9020    -0.3290    13.2120 ca         1 SN7      -0.109000
     23 C23          4.6320    -0.4450    14.3780 ca         1 SN7      -0.137000
     24 C24          6.0200    -0.4430    14.3330 ca         1 SN7      -0.028200
     25 C25          6.6740    -0.3180    13.1140 ca         1 SN7      -0.137000
     26 C26          5.9450    -0.2070    11.9470 ca         1 SN7      -0.109000
     27 N27          6.7600    -0.5600    15.5150 nu         1 SN7      -0.309200
     28 C28          8.0510    -1.0770    15.4800 cc         1 SN7       0.245700
     29 C29          8.4320    -1.9840    14.4910 cc         1 SN7      -0.206000
     30 C30          9.7230    -2.4680    14.4870 cd         1 SN7       0.013500
     31 N31         10.5890    -2.0920    15.4100 na         1 SN7      -0.203200
     32 C32         10.2680    -1.2360    16.3610 cd         1 SN7       0.013500
     33 C33          8.9990    -0.7020    16.4320 cc         1 SN7      -0.206000
     34 C34         11.9490    -2.6350    15.3730 c3         1 SN7       0.161100
     35 C35          4.1330     0.0010    -0.0320 c3         1 SN7      -0.010400
     36 N36         -2.1160    -0.0010     1.1700 nv         1 SN7      -0.883200
     37 N37          4.9810    -2.0770     7.3110 nv         1 SN7      -0.887200
     38 H1          -0.5340     0.0000    -0.9430 ha         1 SN7       0.168000
     39 H2           1.9020     0.0010    -0.9380 ha         1 SN7       0.162000
     40 H5          -0.6230    -0.0020     3.3380 ha         1 SN7       0.148000
     41 H8           5.1570     0.0030     2.3300 h4         1 SN7       0.191000
     42 H9           4.0220     0.0030     4.5110 ha         1 SN7       0.200000
     43 HN1          0.3970     0.1280     4.9040 hn         1 SN7       0.475800
     44 H13          0.8840     1.2080     7.1670 ha         1 SN7       0.148000
     45 H14          2.1220     0.9190     9.2530 ha         1 SN7       0.138000
     46 H17          3.4740    -1.5820     5.1990 ha         1 SN7       0.149000
     47 HN2          2.9480     0.4050    10.8100 hn         1 SN7       0.338500
     48 H22          2.8200    -0.3310    13.2480 ha         1 SN7       0.162500
     49 H23          4.1210    -0.5400    15.3290 ha         1 SN7       0.143500
     50 H25          7.7570    -0.3160    13.0780 ha         1 SN7       0.143500
     51 H26          6.4560    -0.1100    10.9970 ha         1 SN7       0.162500
     52 HN7          6.3600    -0.2720    16.3860 hn         1 SN7       0.322700
     53 H29          7.7260    -2.2970    13.7310 ha         1 SN7       0.197500
     54 H30         10.0280    -3.1730    13.7230 h4         1 SN7       0.203000
     55 H32         11.0100    -0.9520    17.0980 h4         1 SN7       0.203000
     56 H33          8.7420     0.0000    17.2160 ha         1 SN7       0.197500
     57 H341        11.9070    -3.7030    15.1910 h1         1 SN7       0.091700
     58 H342        12.4390    -2.4500    16.3210 h1         1 SN7       0.091700
     59 H343        12.5080    -2.1560    14.5780 h1         1 SN7       0.091700
     60 H351         5.1980    -0.0000     0.1660 h1         1 SN7       0.086033
     61 H352         3.8700    -0.8820    -0.6010 h1         1 SN7       0.086033
     62 H353         3.8720     0.8870    -0.5990 h1         1 SN7       0.086033
     63 H361        -2.6350    -0.0020     2.0260 hn         1 SN7       0.453300
     64 H362        -2.5980    -0.0010     0.2930 hn         1 SN7       0.453300
     65 H371         5.4840    -2.2090     8.1660 hn         1 SN7       0.458300
     66 H372         5.2490    -2.5830     6.4900 hn         1 SN7       0.458300
@<TRIPOS>BOND
     1     1     2 ar
     2     1     6 ar
     3     1    38 1
     4     2     3 ar
     5     2    39 1
     6     3     4 ar
     7     3     7 1
     8     4     5 ar
     9     4    10 ar
    10     5     6 ar
    11     5    40 1
    12     6    36 1
    13     7     8 2
    14     7    35 1
    15     8     9 ar
    16     8    41 1
    17     9    10 ar
    18     9    42 1
    19    10    11 1
    20    11    12 1
    21    11    43 1
    22    12    13 ar
    23    12    17 ar
    24    13    14 ar
    25    13    44 1
    26    14    15 ar
    27    14    45 1
    28    15    16 ar
    29    15    18 1
    30    16    17 ar
    31    16    37 1
    32    17    46 1
    33    18    19 2
    34    18    20 1
    35    20    21 1
    36    20    47 1
    37    21    22 ar
    38    21    26 ar
    39    22    23 ar
    40    22    48 1
    41    23    24 ar
    42    23    49 1
    43    24    25 ar
    44    24    27 1
    45    25    26 ar
    46    25    50 1
    47    26    51 1
    48    27    28 2
    49    27    52 1
    50    28    29 1
    51    28    33 1
    52    29    30 2
    53    29    53 1
    54    30    31 1
    55    30    54 1
    56    31    32 1
    57    31    34 1
    58    32    33 2
    59    32    55 1
    60    33    56 1
    61    34    57 1
    62    34    58 1
    63    34    59 1
    64    35    60 1
    65    35    61 1
    66    35    62 1
    67    36    63 1
    68    36    64 1
    69    37    65 1
    70    37    66 1
@<TRIPOS>SUBSTRUCTURE
     1 SN7         1 TEMP              0 ****  ****    0 ROOT
