@<TRIPOS>MOLECULE
SN8
   83    87     1     0     0
SMALL
bcc


@<TRIPOS>ATOM
      1 CBG          0.0000     0.0000     0.0000 ca         1 SN8      -0.083800
      2 CAU          1.3910     0.0000     0.0000 ca         1 SN8      -0.075000
      3 CAZ          2.0730     0.0000     1.2020 ca         1 SN8      -0.117300
      4 CAA          3.5800    -0.0080     1.2100 c3         1 SN8       0.068200
      5 CAM          1.3760     0.0060     2.3980 ca         1 SN8      -0.070000
      6 CAQ         -0.0050     0.0100     2.4060 ca         1 SN8      -0.156000
      7 CBH         -0.7080     0.0070     1.2080 ca         1 SN8       0.036600
      8 NBJ         -2.0960    -0.0010     1.2070 nh         1 SN8      -0.332000
      9 CAC         -2.5210     0.6100     2.4740 c3         1 SN8       0.144100
     10 CAT         -2.5790     0.8710     0.1380 c3         1 SN8       0.214000
     11 CAP         -2.0360     0.4430    -1.2000 c2         1 SN8      -0.319200
     12 CBF         -0.7640     0.0190    -1.2720 ce         1 SN8       0.081800
     13 NAX         -0.1920    -0.3870    -2.4780 nu         1 SN8      -0.407000
     14 CBC         -0.9830    -0.3590    -3.7110 c3         1 SN8       0.136500
     15 CAJ         -0.0470    -0.2310    -4.9140 c3         1 SN8      -0.043900
     16 CAL         -0.8730    -0.2010    -6.2010 c3         1 SN8      -0.008400
     17 CAI         -1.7910    -1.6520    -3.8270 c3         1 SN8      -0.043900
     18 CAK         -2.6170    -1.6210    -5.1150 c3         1 SN8      -0.008400
     19 CBE         -1.6820    -1.4950    -6.3190 c3         1 SN8      -0.125700
     20 CAY         -2.4960    -1.4650    -7.5860 c          1 SN8       0.577100
     21 OAD         -2.4350    -0.5040    -8.3240 o          1 SN8      -0.647100
     22 NAV         -3.2910    -2.5060    -7.9010 ns         1 SN8      -0.194900
     23 CBA         -4.0830    -2.4780    -9.1330 c3         1 SN8       0.016700
     24 CAF         -4.3810    -3.9090    -9.5820 c3         1 SN8      -0.037900
     25 CAH         -5.2070    -3.8800   -10.8700 c3         1 SN8      -0.020900
     26 CAE         -5.3980    -1.7390    -8.8780 c3         1 SN8      -0.037900
     27 CAG         -6.2240    -1.7090   -10.1650 c3         1 SN8      -0.020900
     28 CBB         -6.5220    -3.1420   -10.6140 c3         1 SN8       0.102500
     29 NAW         -7.3150    -3.1130   -11.8490 n7         1 SN8      -0.569200
     30 CBD         -8.7210    -2.9730   -11.4460 c3         1 SN8       0.100500
     31 CAN         -9.5200    -2.3280   -12.5820 c3         1 SN8      -0.039900
     32 CAR        -11.0010    -2.2910   -12.1990 c3         1 SN8       0.144300
     33 NBI        -11.4970    -3.6580   -12.0050 n3         1 SN8      -0.521600
     34 CAB        -12.9140    -3.5430   -11.6350 c3         1 SN8       0.172100
     35 CAS        -10.8010    -4.2140   -10.8400 c3         1 SN8       0.144300
     36 CAO         -9.3090    -4.3560   -11.1490 c3         1 SN8      -0.039900
     37 HAU          1.9330    -0.1190    -0.9310 ha         1 SN8       0.105000
     38 HAA1         3.9390    -0.9430     0.7970 hc         1 SN8       0.006033
     39 HAA2         3.9360     0.0980     2.2280 hc         1 SN8       0.006033
     40 HAA3         3.9490     0.8160     0.6110 hc         1 SN8       0.006033
     41 HAM          1.9180     0.0060     3.3360 ha         1 SN8       0.104000
     42 HAQ         -0.5410     0.0140     3.3480 ha         1 SN8       0.123000
     43 HAC1        -1.8810     1.4540     2.7010 h1         1 SN8       0.011700
     44 HAC2        -2.4510    -0.1210     3.2690 h1         1 SN8       0.011700
     45 HAC3        -3.5470     0.9490     2.3850 h1         1 SN8       0.011700
     46 HAT         -2.2620     1.8870     0.3400 h1         1 SN8       0.008200
     47 HAT1        -3.6610     0.8300     0.1100 h1         1 SN8       0.008200
     48 HAP         -2.3790     1.0110    -2.0560 ha         1 SN8       0.120000
     49 HAX          0.7550    -0.7100    -2.4980 hn         1 SN8       0.290800
     50 HBC         -1.6590     0.4870    -3.6910 h1         1 SN8       0.046700
     51 HAJ          0.6260    -1.0800    -4.9380 hc         1 SN8       0.023700
     52 HAJ1         0.5230     0.6860    -4.8310 hc         1 SN8       0.023700
     53 HAL         -1.5490     0.6450    -6.1760 hc         1 SN8       0.025450
     54 HAL1        -0.2090    -0.1130    -7.0530 hc         1 SN8       0.025450
     55 HAI         -2.4550    -1.7390    -2.9760 hc         1 SN8       0.023700
     56 HAI1        -1.1150    -2.4980    -3.8530 hc         1 SN8       0.023700
     57 HAK         -3.1880    -2.5390    -5.1980 hc         1 SN8       0.025450
     58 HAK1        -3.2900    -0.7720    -5.0910 hc         1 SN8       0.025450
     59 HBE         -1.0060    -2.3410    -6.3380 hc         1 SN8       0.038700
     60 HAV         -3.3090    -3.3170    -7.3140 hn         1 SN8       0.174500
     61 HBA         -3.5290    -1.9660    -9.9110 h1         1 SN8       0.062700
     62 HAF         -3.4490    -4.4300    -9.7650 hc         1 SN8       0.019950
     63 HAF1        -4.9400    -4.4200    -8.8080 hc         1 SN8       0.019950
     64 HAH         -4.6500    -3.3660   -11.6430 hc         1 SN8       0.024450
     65 HAH1        -5.4190    -4.8950   -11.1840 hc         1 SN8       0.024450
     66 HAE         -5.9550    -2.2530    -8.1050 hc         1 SN8       0.019950
     67 HAE1        -5.1850    -0.7250    -8.5640 hc         1 SN8       0.019950
     68 HAG         -5.6660    -1.1980   -10.9400 hc         1 SN8       0.024450
     69 HAG1        -7.1570    -1.1880    -9.9820 hc         1 SN8       0.024450
     70 HBB         -7.0760    -3.6530    -9.8360 h1         1 SN8       0.016700
     71 HAW         -7.1940    -3.9750   -12.3440 hn         1 SN8       0.262800
     72 HBD         -8.7900    -2.3540   -10.5590 h1         1 SN8       0.040700
     73 HAN         -9.1640    -1.3170   -12.7450 hc         1 SN8       0.026200
     74 HAN1        -9.3960    -2.9110   -13.4870 hc         1 SN8       0.026200
     75 HAR        -11.1200    -1.7320   -11.2790 h1         1 SN8       0.010950
     76 HAR1       -11.5650    -1.8140   -12.9920 h1         1 SN8       0.010950
     77 HAB1       -13.4660    -3.0980   -12.4540 h1         1 SN8       0.002367
     78 HAB2       -13.0080    -2.9180   -10.7550 h1         1 SN8       0.002367
     79 HAB3       -13.3120    -4.5280   -11.4230 h1         1 SN8       0.002367
     80 HAS        -10.9300    -3.5500    -9.9940 h1         1 SN8       0.010950
     81 HAS1       -11.2130    -5.1880   -10.6070 h1         1 SN8       0.010950
     82 HAO         -9.1790    -4.9960   -12.0130 hc         1 SN8       0.026200
     83 HAO1        -8.8030    -4.7870   -10.2930 hc         1 SN8       0.026200
@<TRIPOS>BOND
     1     1     2 ar  
     2     1     7 ar  
     3     1    12 1   
     4     2     3 ar  
     5     2    37 1   
     6     3     4 1   
     7     3     5 ar  
     8     4    38 1   
     9     4    39 1   
    10     4    40 1   
    11     5     6 ar  
    12     5    41 1   
    13     6     7 ar  
    14     6    42 1   
    15     7     8 1   
    16     8     9 1   
    17     8    10 1   
    18     9    43 1   
    19     9    44 1   
    20     9    45 1   
    21    10    11 1   
    22    10    46 1   
    23    10    47 1   
    24    11    12 2   
    25    11    48 1   
    26    12    13 1   
    27    13    14 1   
    28    13    49 1   
    29    14    15 1   
    30    14    17 1   
    31    14    50 1   
    32    15    16 1   
    33    15    51 1   
    34    15    52 1   
    35    16    19 1   
    36    16    53 1   
    37    16    54 1   
    38    17    18 1   
    39    17    55 1   
    40    17    56 1   
    41    18    19 1   
    42    18    57 1   
    43    18    58 1   
    44    19    20 1   
    45    19    59 1   
    46    20    21 2   
    47    20    22 1   
    48    22    23 1   
    49    22    60 1   
    50    23    24 1   
    51    23    26 1   
    52    23    61 1   
    53    24    25 1   
    54    24    62 1   
    55    24    63 1   
    56    25    28 1   
    57    25    64 1   
    58    25    65 1   
    59    26    27 1   
    60    26    66 1   
    61    26    67 1   
    62    27    28 1   
    63    27    68 1   
    64    27    69 1   
    65    28    29 1   
    66    28    70 1   
    67    29    30 1   
    68    29    71 1   
    69    30    31 1   
    70    30    36 1   
    71    30    72 1   
    72    31    32 1   
    73    31    73 1   
    74    31    74 1   
    75    32    33 1   
    76    32    75 1   
    77    32    76 1   
    78    33    34 1   
    79    33    35 1   
    80    34    77 1   
    81    34    78 1   
    82    34    79 1   
    83    35    36 1   
    84    35    80 1   
    85    35    81 1   
    86    36    82 1   
    87    36    83 1   
@<TRIPOS>SUBSTRUCTURE
     1 SN8         1 TEMP              0 ****  ****    0 ROOT
