@<TRIPOS>MOLECULE
molecule
   84    88     1     0     0
SMALL
bcc


@<TRIPOS>ATOM
      1 CAA          0.0000     0.0000     0.0000 c3         1 SN9       0.091700
      2 OAY          1.4290     0.0000     0.0000 os         1 SN9      -0.294900
      3 CBG          1.8220     0.0000     1.3020 ca         1 SN9       0.078100
      4 CAF          0.8750     0.0000     2.3130 ca         1 SN9      -0.193000
      5 CAE          1.2640     0.0010     3.6420 ca         1 SN9      -0.121000
      6 CAR          2.6040     0.0040     3.9730 ca         1 SN9      -0.130000
      7 CBH          3.5630     0.0050     2.9660 ca         1 SN9      -0.060800
      8 CBI          3.1770    -0.0060     1.6210 ca         1 SN9       0.090600
      9 NBK          4.1380    -0.0120     0.6130 nh         1 SN9      -0.541000
     10 CAC          3.5140     0.5940    -0.5710 c3         1 SN9       0.130100
     11 CAU          5.2450     0.8630     0.9980 c3         1 SN9       0.210000
     12 CAQ          5.8380     0.4420     2.3170 c2         1 SN9      -0.306200
     13 CBF          5.0120     0.0220     3.2890 ce         1 SN9       0.207800
     14 NAX          5.4910    -0.3770     4.5370 nu         1 SN9      -0.819000
     15 CBC          6.9280    -0.3450     4.8150 c3         1 SN9       0.247500
     16 CAL          7.1550    -0.2100     6.3220 c3         1 SN9      -0.098400
     17 CAN          8.6570    -0.1770     6.6120 c3         1 SN9      -0.064900
     18 CAK          7.5720    -1.6410     4.3170 c3         1 SN9      -0.098400
     19 CAM          9.0740    -1.6080     4.6070 c3         1 SN9      -0.064900
     20 CBE          9.3000    -1.4730     6.1140 c3         1 SN9      -0.149700
     21 CAZ         10.7800    -1.4400     6.3990 c          1 SN9       0.661100
     22 OAD         11.2700    -0.4750     6.9470 o          1 SN9      -0.612100
     23 NAV         11.5570    -2.4820     6.0460 ns         1 SN9      -0.582900
     24 CBA         12.9950    -2.4510     6.3240 c3         1 SN9       0.114700
     25 CAH         13.5260    -3.8830     6.4250 c3         1 SN9      -0.092900
     26 CAJ         15.0290    -3.8500     6.7150 c3         1 SN9      -0.088900
     27 CAG         13.7170    -1.7190     5.1920 c3         1 SN9      -0.092900
     28 CAI         15.2190    -1.6860     5.4810 c3         1 SN9      -0.088900
     29 CBB         15.7500    -3.1160     5.5830 c3         1 SN9       0.148500
     30 NAW         17.1930    -3.0850     5.8600 n7         1 SN9      -0.791200
     31 CBD         17.8700    -2.9520     4.5640 c3         1 SN9       0.150500
     32 CAO         19.2430    -2.3040     4.7660 c3         1 SN9      -0.075400
     33 CAS         19.9870    -2.2750     3.4300 c3         1 SN9       0.137300
     34 NBJ         20.1900    -3.6430     2.9440 n3         1 SN9      -0.670600
     35 CAB         20.9000    -3.5350     1.6630 c3         1 SN9       0.125100
     36 CAT         18.8670    -4.2030     2.6480 c3         1 SN9       0.137300
     37 CAP         18.0610    -4.3390     3.9410 c3         1 SN9      -0.075400
     38 HAA1        -0.3610    -0.8850     0.5090 h1         1 SN9       0.042700
     39 HAA2        -0.3610     0.8840     0.5120 h1         1 SN9       0.042700
     40 HAA3        -0.3610     0.0020    -1.0210 h1         1 SN9       0.042700
     41 HAF         -0.1790    -0.0030     2.0610 ha         1 SN9       0.142000
     42 HAE          0.5140     0.0010     4.4240 ha         1 SN9       0.131000
     43 HAR          2.9070     0.0040     5.0130 ha         1 SN9       0.129000
     44 HAC1         2.9390    -0.1570    -1.1000 h1         1 SN9       0.050367
     45 HAC2         2.8580     1.3990    -0.2610 h1         1 SN9       0.050367
     46 HAC3         4.2840     0.9870    -1.2240 h1         1 SN9       0.050367
     47 HAU          4.8800     1.8790     1.0830 h1         1 SN9       0.039700
     48 HAU1         6.0120     0.8180     0.2350 h1         1 SN9       0.039700
     49 HAQ          6.8690     0.6820     2.5480 ha         1 SN9       0.135000
     50 HAX          4.8530    -0.6990     5.2380 hn         1 SN9       0.434800
     51 HBC          7.3800     0.4990     4.3070 h1         1 SN9       0.063700
     52 HAL          6.7000     0.7080     6.6730 hc         1 SN9       0.051950
     53 HAL1         6.7090    -1.0570     6.8300 hc         1 SN9       0.051950
     54 HAN          9.1040     0.6670     6.1000 hc         1 SN9       0.054200
     55 HAN1         8.8150    -0.0840     7.6790 hc         1 SN9       0.054200
     56 HAK          7.1250    -2.4840     4.8290 hc         1 SN9       0.051950
     57 HAK1         7.4140    -1.7340     3.2500 hc         1 SN9       0.051950
     58 HAM          9.5290    -2.5260     4.2560 hc         1 SN9       0.054200
     59 HAM1         9.5200    -0.7610     4.0990 hc         1 SN9       0.054200
     60 HBE          8.8480    -2.3160     6.6220 hc         1 SN9       0.065700
     61 HAV         11.1460    -3.2960     5.6340 hn         1 SN9       0.313500
     62 HBA         13.1760    -1.9340     7.2580 h1         1 SN9       0.081700
     63 HAH         13.3520    -4.3980     5.4880 hc         1 SN9       0.048200
     64 HAH1        13.0160    -4.4000     7.2280 hc         1 SN9       0.048200
     65 HAJ         15.4040    -4.8630     6.7840 hc         1 SN9       0.050700
     66 HAJ1        15.2030    -3.3300     7.6490 hc         1 SN9       0.050700
     67 HAG         13.5420    -2.2390     4.2580 hc         1 SN9       0.048200
     68 HAG1        13.3420    -0.7050     5.1220 hc         1 SN9       0.048200
     69 HAI         15.3940    -1.1690     6.4170 hc         1 SN9       0.050700
     70 HAI1        15.7290    -1.1690     4.6760 hc         1 SN9       0.050700
     71 HBB         15.5690    -3.6340     4.6480 h1         1 SN9       0.061700
     72 HAW         17.4050    -2.2910     6.4310 hn         1 SN9       0.354800
     73 HBD         17.2750    -2.3370     3.9000 h1         1 SN9       0.025700
     74 HAO         19.8120    -2.8820     5.4840 hc         1 SN9       0.055200
     75 HAO1        19.1130    -1.2920     5.1300 hc         1 SN9       0.055200
     76 HAS         20.9490    -1.7960     3.5660 h1         1 SN9       0.035700
     77 HAS1        19.4020    -1.7200     2.7060 h1         1 SN9       0.035700
     78 HAB1        21.0190    -4.5220     1.2320 h1         1 SN9       0.034367
     79 HAB2        21.8750    -3.0930     1.8260 h1         1 SN9       0.034367
     80 HAB3        20.3290    -2.9120     0.9850 h1         1 SN9       0.034367
     81 HAT         18.9840    -5.1790     2.1940 h1         1 SN9       0.035700
     82 HAT1        18.3430    -3.5430     1.9670 h1         1 SN9       0.035700
     83 HAP         18.5970    -4.9750     4.6350 hc         1 SN9       0.055200
     84 HAP1        17.0930    -4.7710     3.7190 hc         1 SN9       0.055200
@<TRIPOS>BOND
     1     1     2 1
     2     1    38 1
     3     1    39 1
     4     1    40 1
     5     2     3 1
     6     3     4 ar
     7     3     8 ar
     8     4     5 ar
     9     4    41 1
    10     5     6 ar
    11     5    42 1
    12     6     7 ar
    13     6    43 1
    14     7     8 ar
    15     7    13 1
    16     8     9 1
    17     9    10 1
    18     9    11 1
    19    10    44 1
    20    10    45 1
    21    10    46 1
    22    11    12 1
    23    11    47 1
    24    11    48 1
    25    12    13 2
    26    12    49 1
    27    13    14 1
    28    14    15 1
    29    14    50 1
    30    15    16 1
    31    15    18 1
    32    15    51 1
    33    16    17 1
    34    16    52 1
    35    16    53 1
    36    17    20 1
    37    17    54 1
    38    17    55 1
    39    18    19 1
    40    18    56 1
    41    18    57 1
    42    19    20 1
    43    19    58 1
    44    19    59 1
    45    20    21 1
    46    20    60 1
    47    21    22 2
    48    21    23 1
    49    23    24 1
    50    23    61 1
    51    24    25 1
    52    24    27 1
    53    24    62 1
    54    25    26 1
    55    25    63 1
    56    25    64 1
    57    26    29 1
    58    26    65 1
    59    26    66 1
    60    27    28 1
    61    27    67 1
    62    27    68 1
    63    28    29 1
    64    28    69 1
    65    28    70 1
    66    29    30 1
    67    29    71 1
    68    30    31 1
    69    30    72 1
    70    31    32 1
    71    31    37 1
    72    31    73 1
    73    32    33 1
    74    32    74 1
    75    32    75 1
    76    33    34 1
    77    33    76 1
    78    33    77 1
    79    34    35 1
    80    34    36 1
    81    35    78 1
    82    35    79 1
    83    35    80 1
    84    36    37 1
    85    36    81 1
    86    36    82 1
    87    37    83 1
    88    37    84 1
@<TRIPOS>SUBSTRUCTURE
     1 SN9         1 TEMP              0 ****  ****    0 ROOT
