@<TRIPOS>MOLECULE
SNB
   33    35     1     0     0
SMALL
bcc


@<TRIPOS>ATOM
      1 Cl           0.0000     0.0000     0.0000 cl         1 SNB       0.001600
      2 C16          1.7360     0.0000     0.0000 ca         1 SNB      -0.089600
      3 C2           2.4300     0.0000     1.2050 ca         1 SNB       0.173100
      4 O            1.7480    -0.0000     2.3790 os         1 SNB      -0.295900
      5 C1           2.5220     0.0000     3.5800 c3         1 SNB       0.243700
      6 C15          2.4250    -0.0060    -1.1960 ca         1 SNB      -0.038000
      7 C14          3.8180    -0.0060    -1.1890 ca         1 SNB      -0.207900
      8 C4           4.5120    -0.0000     0.0240 ca         1 SNB      -0.023300
      9 C3           3.8210    -0.0010     1.2130 ca         1 SNB      -0.205000
     10 C7           4.5930    -0.0110    -2.4490 ce         1 SNB       0.499500
     11 N            5.8430    -0.3720    -2.4320 n2         1 SNB      -0.531900
     12 C6           6.5070    -0.8030    -1.2070 c3         1 SNB       0.161800
     13 C5           6.0180    -0.0010    -0.0020 c3         1 SNB      -0.001100
     14 C8           3.9500     0.3930    -3.7210 ca         1 SNB      -0.125900
     15 C13          2.9350     1.3490    -3.7200 ca         1 SNB      -0.081000
     16 C12          2.3400     1.7210    -4.9090 ca         1 SNB       0.029100
     17 Br           0.9640     3.0190    -4.9100 br         1 SNB      -0.129100
     18 C11          2.7500     1.1460    -6.1000 ca         1 SNB      -0.075000
     19 C10          3.7560     0.1980    -6.1060 ca         1 SNB      -0.103000
     20 C9           4.3610    -0.1780    -4.9250 ca         1 SNB      -0.057000
     21 H15          1.8890    -0.1300    -2.1290 ha         1 SNB       0.134000
     22 H3           4.3580    -0.0010     2.1540 ha         1 SNB       0.130000
     23 H11C         3.1610    -0.8740     3.5980 h1         1 SNB       0.000367
     24 H12C         3.1320     0.8950     3.6160 h1         1 SNB       0.000367
     25 H13C         1.8590    -0.0190     4.4360 h1         1 SNB       0.000367
     26 H51C         6.3770     1.0180    -0.0790 hc         1 SNB       0.030200
     27 H52C         6.3930    -0.4540     0.9070 hc         1 SNB       0.030200
     28 H61C         6.2750    -1.8480    -1.0410 h1         1 SNB       0.027700
     29 H62C         7.5720    -0.6390    -1.3180 h1         1 SNB       0.027700
     30 H13          2.6760     1.8630    -2.8020 ha         1 SNB       0.130000
     31 H9           5.1490    -0.9220    -4.9320 ha         1 SNB       0.122000
     32 H11          2.2790     1.4400    -7.0300 ha         1 SNB       0.115000
     33 H10          4.0730    -0.2470    -7.0420 ha         1 SNB       0.109000
@<TRIPOS>BOND
     1     1     2 1   
     2     2     3 ar  
     3     2     6 ar  
     4     3     4 1   
     5     3     9 ar  
     6     4     5 1   
     7     5    23 1   
     8     5    24 1   
     9     5    25 1   
    10     6     7 ar  
    11     6    21 1   
    12     7     8 ar  
    13     7    10 1   
    14     8     9 ar  
    15     8    13 1   
    16     9    22 1   
    17    10    11 2   
    18    10    14 1   
    19    11    12 1   
    20    12    13 1   
    21    12    28 1   
    22    12    29 1   
    23    13    26 1   
    24    13    27 1   
    25    14    15 ar  
    26    14    20 ar  
    27    15    16 ar  
    28    15    30 1   
    29    16    17 1   
    30    16    18 ar  
    31    18    19 ar  
    32    18    32 1   
    33    19    20 ar  
    34    19    33 1   
    35    20    31 1   
@<TRIPOS>SUBSTRUCTURE
     1 SNB         1 TEMP              0 ****  ****    0 ROOT
