@<TRIPOS>MOLECULE
SNE
   26    27     1     0     0
SMALL
bcc


@<TRIPOS>ATOM
      1 C6          0.0730    0.5290    0.0810 c2        1 SNE     -0.225000
      2 C1          1.3260    0.0800    0.0470 c2        1 SNE     -0.086400
      3 C7          2.2320   -0.0300    1.2120 cx        1 SNE     -0.092500
      4 C9          3.5060    0.7730    1.1550 cx        1 SNE     -0.106400
      5 C4          2.0320   -0.4170   -1.1810 c3        1 SNE     -0.050200
      6 C3          3.4120   -0.9310   -0.7510 c3        1 SNE     -0.047400
      7 C8          3.5340   -0.6770    0.7360 cx        1 SNE     -0.109000
      8 C2          4.2840   -1.6720    1.5690 c3        1 SNE     -0.026700
      9 C           3.5650   -3.0050    1.6360 c3        1 SNE     -0.087600
     10 C5          5.6980   -1.8570    1.0540 c3        1 SNE     -0.087600
     11 H1         -0.5570    0.5720   -0.8160 ha        1 SNE      0.114000
     12 H2         -0.3990    0.8820    1.0060 ha        1 SNE      0.114000
     13 H4          1.7720   -0.2670    2.1830 hc        1 SNE      0.092700
     14 H5          3.6170    1.5550    0.3830 hc        1 SNE      0.071700
     15 H6          3.9850    1.0560    2.1090 hc        1 SNE      0.071700
     16 H7          2.1350    0.4110   -1.9270 hc        1 SNE      0.051200
     17 H8          3.5070   -2.0240   -0.9690 hc        1 SNE      0.048200
     18 H9          4.2240   -0.3990   -1.3060 hc        1 SNE      0.048200
     19 H10         4.3460   -1.2630    2.6200 hc        1 SNE      0.045700
     20 H11         3.5460   -3.4990    0.6360 hc        1 SNE      0.034700
     21 H12         4.0860   -3.6830    2.3540 hc        1 SNE      0.034700
     22 H13         2.5120   -2.8580    1.9790 hc        1 SNE      0.034700
     23 H14         6.2430   -0.8830    1.0580 hc        1 SNE      0.034700
     24 H15         5.6870   -2.2520    0.0100 hc        1 SNE      0.034700
     25 H16         6.2510   -2.5790    1.7020 hc        1 SNE      0.034700
     26 H3          1.4400   -1.2360   -1.6630 hc        1 SNE      0.051200
@<TRIPOS>BOND
     1    1    2 2   
     2    1   11 1   
     3    1   12 1   
     4    2    3 1   
     5    2    5 1   
     6    3    4 1   
     7    3    7 1   
     8    3   13 1   
     9    4    7 1   
    10    4   14 1   
    11    4   15 1   
    12    5    6 1   
    13    5   16 1   
    14    5   26 1   
    15    6    7 1   
    16    6   17 1   
    17    6   18 1   
    18    7    8 1   
    19    8    9 1   
    20    8   10 1   
    21    8   19 1   
    22    9   20 1   
    23    9   21 1   
    24    9   22 1   
    25   10   23 1   
    26   10   24 1   
    27   10   25 1   
@<TRIPOS>SUBSTRUCTURE
     1 SNE         1 TEMP              0 ****  ****    0 ROOT
