@<TRIPOS>MOLECULE
molecule
   26    27     1     0     0
SMALL
bcc


@<TRIPOS>ATOM
      1 C6           0.0000     0.0000     0.0000 c2         1 SNE      -0.214000
      2 C1           1.3100     0.0000     0.0000 c2         1 SNE      -0.088400
      3 C7           2.2350     0.0000     1.2040 cx         1 SNE      -0.107500
      4 C9           3.4930     0.8690     1.1570 cx         1 SNE      -0.085400
      5 C4           2.2410    -0.0060    -1.2070 c3         1 SNE      -0.056200
      6 C3           3.3910    -0.9400    -0.7540 c3         1 SNE      -0.041400
      7 C8           3.5730    -0.6000     0.7380 cx         1 SNE      -0.146000
      8 C2           4.3550    -1.5880     1.6050 c3         1 SNE      -0.029700
      9 C            3.4930    -2.8240     1.8720 c3         1 SNE      -0.085100
     10 C5           5.6340    -2.0050     0.8770 c3         1 SNE      -0.085100
     11 H1          -0.5420    -0.0050    -0.9380 ha         1 SNE       0.117000
     12 H2          -0.5420     0.0330     0.9380 ha         1 SNE       0.117000
     13 H4           1.9070    -0.4030     2.1550 hc         1 SNE       0.087700
     14 H5           3.9330     1.1060     2.1180 hc         1 SNE       0.076700
     15 H6           3.5330     1.5890     0.3490 hc         1 SNE       0.076700
     16 H7           2.6150     0.9910    -1.4060 hc         1 SNE       0.053200
     17 H8           4.2960    -0.7210    -1.3060 hc         1 SNE       0.050200
     18 H9           3.1050    -1.9780    -0.8740 hc         1 SNE       0.050200
     19 H10          4.6120    -1.1170     2.5460 hc         1 SNE       0.048700
     20 H11          2.6300    -2.5430     2.4630 hc         1 SNE       0.034533
     21 H12          3.1640    -3.2450     0.9290 hc         1 SNE       0.034533
     22 H13          4.0760    -3.5610     2.4120 hc         1 SNE       0.034533
     23 H14          6.1140    -1.1280     0.4600 hc         1 SNE       0.034533
     24 H15          5.3860    -2.6950     0.0790 hc         1 SNE       0.034533
     25 H16          6.3060    -2.4870     1.5760 hc         1 SNE       0.034533
     26 H3           1.7370    -0.4150    -2.0750 hc         1 SNE       0.053200
@<TRIPOS>BOND
     1     1     2 2
     2     5     2 1
     3     5     6 1
     4     2     3 1
     5     4     3 1
     6     4     7 1
     7     6     7 1
     8     3     7 1
     9     7     8 1
    10     8    10 1
    11     8     9 1
    12     1    11 1
    13     1    12 1
    14     3    13 1
    15     4    14 1
    16     4    15 1
    17     5    16 1
    18     6    17 1
    19     6    18 1
    20     8    19 1
    21     9    20 1
    22     9    21 1
    23     9    22 1
    24    10    23 1
    25    10    24 1
    26    10    25 1
    27     5    26 1
@<TRIPOS>SUBSTRUCTURE
     1 SNE         1 TEMP              0 ****  ****    0 ROOT
