@<TRIPOS>MOLECULE
molecule
   33    33     1     0     0
SMALL
bcc


@<TRIPOS>ATOM
      1 C1           0.0000     0.0000     0.0000 c3         1 SNG       0.222200
      2 C2           1.5350     0.0000     0.0000 c3         1 SNG       0.083700
      3 C3           2.0590     0.0000     1.4550 c3         1 SNG       0.111100
      4 C4           1.4390     1.1370     2.2790 c3         1 SNG       0.105100
      5 C5          -0.0940     1.0610     2.1700 c3         1 SNG       0.138100
      6 C6          -0.7740     2.2220     2.9350 c3         1 SNG       0.157400
      7 C7           2.7700    -1.2130    -1.7780 c          1 SNG       0.668100
      8 C8           3.0380     0.1470    -2.3610 c3         1 SNG      -0.186100
      9 N2           2.0460    -1.2180    -0.6710 ns         1 SNG      -0.549900
     10 O3           3.5030     0.1380     1.4400 oh         1 SNG      -0.601800
     11 O4           1.8280     0.9750     3.6400 oh         1 SNG      -0.606800
     12 O5          -0.4340     1.1650     0.7780 os         1 SNG      -0.395600
     13 O6          -0.3900     3.4400     2.3530 oh         1 SNG      -0.602800
     14 O7           3.2900    -2.2540    -2.2820 o          1 SNG      -0.629100
     15 SE          -0.6840     0.0950    -1.7270 ss         1 SNG      -0.281200
     16 H1          -0.3560    -0.9030     0.4820 h2         1 SNG       0.076700
     17 H2           1.8960     0.8820    -0.5140 h1         1 SNG       0.097700
     18 H3           1.7990    -0.9450     1.9170 h1         1 SNG       0.048700
     19 H4           1.7860     2.0920     1.9040 h1         1 SNG       0.078700
     20 H5          -0.4390     0.1100     2.5580 h1         1 SNG       0.056700
     21 H6C1        -1.8500     2.1150     2.8750 h1         1 SNG       0.037200
     22 H6C2        -0.4640     2.2030     3.9730 h1         1 SNG       0.037200
     23 H8C1         2.1280     0.5370    -2.8010 hc         1 SNG       0.064033
     24 H8C2         3.8030     0.0690    -3.1230 hc         1 SNG       0.064033
     25 H8C3         3.3750     0.8160    -1.5780 hc         1 SNG       0.064033
     26 HMC1        -0.6550     2.3990    -2.3850 h1         1 SNG       0.068033
     27 HMC2         0.5670     1.4560    -3.2510 h1         1 SNG       0.068033
     28 HMC3         0.8450     1.9330    -1.5700 h1         1 SNG       0.068033
     29 HA           1.8280    -2.1040    -0.2600 hn         1 SNG       0.316500
     30 HB           3.8790    -0.4330     2.0890 ho         1 SNG       0.414000
     31 HC           2.5110     1.5910     3.8470 ho         1 SNG       0.417000
     32 H6          -0.9230     4.1360     2.6990 ho         1 SNG       0.409000
     33 CM           0.0960     1.6240    -2.2900 c3         1 SNG      -0.014000
@<TRIPOS>BOND
     1     1     2 1
     2     1    12 1
     3     1    15 1
     4     1    16 1
     5     2     3 1
     6     2     9 1
     7     2    17 1
     8     3     4 1
     9     3    10 1
    10     3    18 1
    11     4     5 1
    12     4    11 1
    13     4    19 1
    14     5     6 1
    15     5    12 1
    16     5    20 1
    17     6    13 1
    18     6    21 1
    19     6    22 1
    20     7     8 1
    21     7     9 1
    22     7    14 2
    23     8    23 1
    24     8    24 1
    25     8    25 1
    26    33    15 1
    27    33    26 1
    28    33    27 1
    29    33    28 1
    30     9    29 1
    31    10    30 1
    32    11    31 1
    33    13    32 1
@<TRIPOS>SUBSTRUCTURE
     1 SNG         1 TEMP              0 ****  ****    0 ROOT
