@<TRIPOS>MOLECULE
SNG
   33    33     1     0     0
SMALL
bcc


@<TRIPOS>ATOM
      1 C1           0.0000     0.0000     0.0000 c3         1 SNG       0.279200
      2 C2           1.5350     0.0000     0.0000 c3         1 SNG      -0.045300
      3 C3           2.0590     0.0000     1.4550 c3         1 SNG       0.155100
      4 C4           1.4390     1.1370     2.2790 c3         1 SNG       0.140100
      5 C5          -0.0940     1.0610     2.1700 c3         1 SNG       0.160100
      6 C6          -0.7740     2.2220     2.9350 c3         1 SNG       0.235400
      7 C7           2.7700    -1.2130    -1.7780 c          1 SNG       0.575100
      8 C8           3.0380     0.1470    -2.3610 c3         1 SNG      -0.111100
      9 N2           2.0460    -1.2180    -0.6710 ns         1 SNG      -0.137900
     10 O3           3.5030     0.1380     1.4400 oh         1 SNG      -0.584800
     11 O4           1.8280     0.9750     3.6400 oh         1 SNG      -0.586800
     12 O5          -0.4340     1.1650     0.7780 os         1 SNG      -0.375600
     13 O6          -0.3900     3.4400     2.3530 oh         1 SNG      -0.587800
     14 O7           3.2900    -2.2540    -2.2820 o          1 SNG      -0.664100
     15 SE          -0.6840     0.0950    -1.7270 ss         1 SNG      -0.357200
     16 H1          -0.3560    -0.9030     0.4820 h2         1 SNG       0.050700
     17 H2           1.8960     0.8820    -0.5140 h1         1 SNG       0.081700
     18 H3           1.7990    -0.9450     1.9170 h1         1 SNG       0.016700
     19 H4           1.7860     2.0920     1.9040 h1         1 SNG       0.042700
     20 H5          -0.4390     0.1100     2.5580 h1         1 SNG       0.023700
     21 H6C1        -1.8500     2.1150     2.8750 h1         1 SNG      -0.001800
     22 H6C2        -0.4640     2.2030     3.9730 h1         1 SNG      -0.001800
     23 H8C1         2.1280     0.5370    -2.8010 hc         1 SNG       0.033367
     24 H8C2         3.8030     0.0690    -3.1230 hc         1 SNG       0.033367
     25 H8C3         3.3750     0.8160    -1.5780 hc         1 SNG       0.033367
     26 HMC1        -0.6550     2.3990    -2.3850 h1         1 SNG       0.043700
     27 HMC2         0.5670     1.4560    -3.2510 h1         1 SNG       0.043700
     28 HMC3         0.8450     1.9330    -1.5700 h1         1 SNG       0.043700
     29 HA           1.8280    -2.1040    -0.2600 hn         1 SNG       0.173500
     30 HB           3.8790    -0.4330     2.0890 ho         1 SNG       0.403000
     31 HC           2.5110     1.5910     3.8470 ho         1 SNG       0.403000
     32 H6          -0.9230     4.1360     2.6990 ho         1 SNG       0.395000
     33 CM           0.0960     1.6240    -2.2900 c3         1 SNG       0.090000
@<TRIPOS>BOND
     1     1     2 1   
     2     1    12 1   
     3     1    15 1   
     4     1    16 1   
     5     2     3 1   
     6     2     9 1   
     7     2    17 1   
     8     3     4 1   
     9     3    10 1   
    10     3    18 1   
    11     4     5 1   
    12     4    11 1   
    13     4    19 1   
    14     5     6 1   
    15     5    12 1   
    16     5    20 1   
    17     6    13 1   
    18     6    21 1   
    19     6    22 1   
    20     7     8 1   
    21     7     9 1   
    22     7    14 2   
    23     8    23 1   
    24     8    24 1   
    25     8    25 1   
    26     9    29 1   
    27    10    30 1   
    28    11    31 1   
    29    13    32 1   
    30    15    33 1   
    31    26    33 1   
    32    27    33 1   
    33    28    33 1   
@<TRIPOS>SUBSTRUCTURE
     1 SNG         1 TEMP              0 ****  ****    0 ROOT
