@<TRIPOS>MOLECULE
molecule
   44    46     1     0     0
SMALL
bcc


@<TRIPOS>ATOM
      1 C1           0.0000     0.0000     0.0000 cc         1 SNH      -0.019100
      2 C2           1.3860     0.0000     0.0000 cd         1 SNH      -0.176000
      3 C3           2.0450     0.0000     1.2030 cd         1 SNH       0.080600
      4 C4           1.2860    -0.0120     2.3760 cc         1 SNH       0.051300
      5 S5          -0.3840    -0.0140     1.7430 ss         1 SNH      -0.100800
      6 C6           1.7260    -0.0200     3.7190 c          1 SNH       0.901200
      7 O7           0.8240    -0.0310     4.7240 o          1 SNH      -0.812800
      8 O8           2.9170    -0.0170     3.9700 o          1 SNH      -0.812800
      9 N9           3.4370     0.0050     1.2560 nu         1 SNH      -0.733500
     10 S11          4.3040     0.8440     0.1220 sy         1 SNH       1.427200
     11 O12          5.6710     0.6490     0.4590 o          1 SNH      -0.639800
     12 O13          3.6600     2.1060    -0.0010 o          1 SNH      -0.639800
     13 C14          4.0720     0.0350    -1.4250 ca         1 SNH      -0.319500
     14 C15          3.4420     0.6960    -2.4630 ca         1 SNH      -0.025000
     15 C16          3.2600     0.0600    -3.6770 ca         1 SNH      -0.163000
     16 C17          3.7080    -1.2360    -3.8540 ca         1 SNH      -0.035300
     17 C18          4.3400    -1.8960    -2.8160 ca         1 SNH      -0.157000
     18 C19          4.5250    -1.2580    -1.6030 ca         1 SNH       0.030700
     19 C20          5.2150    -1.9780    -0.4720 c3         1 SNH      -0.096800
     20 C21          3.5100    -1.9280    -5.1770 c3         1 SNH      -0.052800
     21 C22         -0.9210     0.0040    -1.1450 cc         1 SNH       0.194900
     22 C23         -2.3120    -0.0020    -1.1480 cd         1 SNH      -0.238000
     23 C24         -2.9650     0.0090    -2.3430 cd         1 SNH      -0.058000
     24 C25         -2.2120     0.0130    -3.5160 cc         1 SNH      -0.169700
     25 S26         -0.5400     0.0170    -2.8900 ss         1 SNH      -0.178800
     26 C27         -2.6580     0.0200    -4.8550 c          1 SNH       0.625700
     27 C28         -1.6570     0.0320    -5.9820 c3         1 SNH      -0.192100
     28 O29         -3.8470     0.0180    -5.1000 o          1 SNH      -0.556100
     29 H2           1.9380     0.0080    -0.9320 ha         1 SNH       0.142000
     30 HN9          3.9110    -0.4610     2.0040 hn         1 SNH       0.496800
     31 H15          3.0900     1.7110    -2.3250 ha         1 SNH       0.160000
     32 H16          2.7650     0.5770    -4.4900 ha         1 SNH       0.130000
     33 H18          4.6940    -2.9100    -2.9540 ha         1 SNH       0.130000
     34 H201         4.4970    -2.1920     0.3100 hc         1 SNH       0.066700
     35 H202         6.0060    -1.3530    -0.0750 hc         1 SNH       0.066700
     36 H203         5.6370    -2.9060    -0.8390 hc         1 SNH       0.066700
     37 H211         3.2110    -1.2020    -5.9230 hc         1 SNH       0.043033
     38 H212         2.7390    -2.6830    -5.0780 hc         1 SNH       0.043033
     39 H213         4.4370    -2.3980    -5.4820 hc         1 SNH       0.043033
     40 H23         -2.8650    -0.0070    -0.2170 ha         1 SNH       0.155000
     41 H24         -4.0480     0.0060    -2.3820 ha         1 SNH       0.151000
     42 H281        -1.0570    -0.8690    -5.9410 hc         1 SNH       0.057033
     43 H282        -1.0140     0.8980    -5.8860 hc         1 SNH       0.057033
     44 H283        -2.1810     0.0740    -6.9300 hc         1 SNH       0.057033
@<TRIPOS>BOND
     1     1     2 2
     2     1     5 1
     3     1    21 1
     4     2     3 1
     5     2    29 1
     6     3     4 2
     7     3     9 1
     8     4     5 1
     9     4     6 1
    10     6     7 1
    11     6     8 1
    12     9    10 1
    13     9    30 1
    14    10    11 2
    15    10    12 2
    16    10    13 1
    17    13    14 ar
    18    13    18 ar
    19    14    15 ar
    20    14    31 1
    21    15    16 ar
    22    15    32 1
    23    16    17 ar
    24    16    20 1
    25    17    18 ar
    26    17    33 1
    27    18    19 1
    28    19    34 1
    29    19    35 1
    30    19    36 1
    31    20    37 1
    32    20    38 1
    33    20    39 1
    34    21    22 2
    35    21    25 1
    36    22    23 1
    37    22    40 1
    38    23    24 2
    39    23    41 1
    40    24    25 1
    41    24    26 1
    42    26    27 1
    43    26    28 2
    44    27    42 1
    45    27    43 1
    46    27    44 1
@<TRIPOS>SUBSTRUCTURE
     1 SNH         1 TEMP              0 ****  ****    0 ROOT
