@<TRIPOS>MOLECULE
SNI
   31    33     1     0     0
SMALL
bcc


@<TRIPOS>ATOM
      1 O5'        -0.2140   -0.6390    1.3510 oh        1 SNI     -0.585800
      2 C5'         1.0730   -0.8130    0.8050 c3        1 SNI      0.121400
      3 C4'         2.1160   -0.0300    1.6030 c3        1 SNI      0.052100
      4 O4'         2.1840   -0.5470    2.9390 os        1 SNI     -0.412600
      5 C1'         3.3920   -1.2900    3.1570 c3        1 SNI      0.247800
      6 N9          3.1240   -2.7060    3.2460 na        1 SNI     -0.216900
      7 C4          2.8850   -3.4210    4.4260 cc        1 SNI      0.086800
      8 N3          2.9420   -3.0030    5.7500 nc        1 SNI     -0.590100
      9 C2          2.6710   -3.9660    6.6190 cd        1 SNI      0.483800
     10 N1          2.3540   -5.2830    6.3290 n         1 SNI     -0.433400
     11 C6          2.2810   -5.7840    5.0130 c         1 SNI      0.322900
     12 SE          1.9220   -7.2930    4.7490 s         1 SNI     -0.397400
     13 C5          2.5670   -4.7740    4.0190 cd        1 SNI      0.237800
     14 N7          2.5960   -4.8670    2.6230 nd        1 SNI     -0.579000
     15 C8          2.9150   -3.6340    2.1940 cc        1 SNI      0.403400
     16 C2'         4.3700   -0.9190    2.0000 c3        1 SNI      0.076100
     17 O2'         5.3660   -0.1040    2.5850 oh        1 SNI     -0.586800
     18 C3'         3.5210   -0.1160    0.9860 c3        1 SNI      0.087100
     19 O3'         4.0900    1.1520    0.7520 oh        1 SNI     -0.582800
     20 H5'        -0.1750   -0.9270    2.2730 ho        1 SNI      0.416000
     21 H5'1        1.0050   -0.4090   -0.2400 h1        1 SNI      0.053700
     22 H5'2        1.3430   -1.9030    0.7800 h1        1 SNI      0.053700
     23 H4'         1.7800    1.0380    1.7230 h1        1 SNI      0.101700
     24 H1'         3.7840   -0.9340    4.1590 h2        1 SNI      0.142700
     25 H2          2.6980   -3.6890    7.6960 h5        1 SNI      0.062800
     26 HN1         2.1630   -5.9260    7.0710 hn        1 SNI      0.351500
     27 H8          3.0280   -3.3450    1.1430 h5        1 SNI      0.065100
     28 H2'         4.8430   -1.8150    1.5190 h1        1 SNI      0.072700
     29 H1          5.9350    0.2030    1.8640 ho        1 SNI      0.428000
     30 H3'         3.5040   -0.6090   -0.0240 h1        1 SNI      0.098700
     31 H3          4.0910    1.6340    1.5930 ho        1 SNI      0.421000
@<TRIPOS>BOND
     1    1    2 1   
     2    1   20 1   
     3    2    3 1   
     4    2   21 1   
     5    2   22 1   
     6    3    4 1   
     7    3   18 1   
     8    3   23 1   
     9    4    5 1   
    10    5    6 1   
    11    5   16 1   
    12    5   24 1   
    13    6    7 1   
    14    6   15 1   
    15    7    8 1   
    16    7   13 2   
    17    8    9 2   
    18    9   10 1   
    19    9   25 1   
    20   10   11 1   
    21   10   26 1   
    22   11   12 2   
    23   11   13 1   
    24   13   14 1   
    25   14   15 2   
    26   15   27 1   
    27   16   17 1   
    28   16   18 1   
    29   16   28 1   
    30   17   29 1   
    31   18   19 1   
    32   18   30 1   
    33   19   31 1   
@<TRIPOS>SUBSTRUCTURE
     1 SNI         1 TEMP              0 ****  ****    0 ROOT
