@<TRIPOS>MOLECULE
SNL
   61    64     1     0     0
SMALL
bcc


@<TRIPOS>ATOM
      1 C8          1.8490    0.1470    0.0510 c3        1 SNL     -0.078400
      2 C4         -1.5410   -0.2590    1.7540 c3        1 SNL     -0.067400
      3 C5         -0.1820    0.3280    1.4180 c3        1 SNL     -0.039000
      4 C2         -0.9170   -0.7530    5.5880 c3        1 SNL     -0.013800
      5 C6          0.8820   -0.5080    2.1670 c3        1 SNL     -0.074700
      6 C1         -2.2350   -1.4730    5.9150 c3        1 SNL     -0.069400
      7 C3         -1.7760   -0.2280    3.2550 c3        1 SNL     -0.074400
      8 C7          2.2000   -0.1020    1.5200 c3        1 SNL     -0.074400
      9 C9          0.3080    0.1700   -0.0460 c3        1 SNL      0.157000
     10 C10        -0.1440    1.8100    1.7640 c3        1 SNL     -0.083100
     11 C11        -1.0260    0.7060    6.0220 c3        1 SNL     -0.087100
     12 C12        -2.4300   -1.7280    7.3920 c3        1 SNL     -0.182400
     13 C13        -0.2530   -1.0440   -0.7660 c2        1 SNL     -0.127200
     14 C14        -0.9050   -0.6520   -1.8790 ce        1 SNL     -0.231200
     15 C15        -0.8250    0.8300   -1.9570 c         1 SNL      0.702800
     16 C17         3.2960   -5.0260    4.1190 c3        1 SNL     -0.193100
     17 C18        -1.2780   -2.4950    7.9750 c         1 SNL      0.569300
     18 C19         0.0430   -2.1720    7.4210 ce        1 SNL     -0.253200
     19 C20         0.2240   -1.3840    6.3480 c2        1 SNL     -0.031400
     20 C22         1.8000   -1.1750    4.4100 c3        1 SNL      0.023400
     21 C23         0.7290   -0.3890    3.6690 c3        1 SNL     -0.034700
     22 C24        -0.6680   -0.8900    4.0680 c3        1 SNL     -0.054700
     23 O57        -1.2420    1.6680   -2.7440 o         1 SNL     -0.555500
     24 O58        -0.1030    1.3050   -0.8630 os        1 SNL     -0.409900
     25 O59         4.0900   -3.0090    5.1580 o         1 SNL     -0.532100
     26 O60        -1.4310   -3.3240    8.8810 o         1 SNL     -0.532100
     27 S61         1.7670   -2.8930    3.8790 ss        1 SNL     -0.274700
     28 H81         2.2560    1.1280   -0.2990 hc        1 SNL      0.065200
     29 H82         2.2650   -0.6570   -0.6030 hc        1 SNL      0.065200
     30 H41        -2.3490    0.3240    1.2410 hc        1 SNL      0.048700
     31 H42        -1.5970   -1.3190    1.3870 hc        1 SNL      0.048700
     32 H6          0.7050   -1.5960    1.9030 hc        1 SNL      0.061700
     33 H11        -3.0920   -0.8530    5.5430 hc        1 SNL      0.051700
     34 H12        -2.2620   -2.4530    5.3690 hc        1 SNL      0.051700
     35 H31        -1.9020    0.8370    3.5820 hc        1 SNL      0.048200
     36 H32        -2.7430   -0.7580    3.4650 hc        1 SNL      0.048200
     37 H71         2.6090    0.8250    1.9930 hc        1 SNL      0.052700
     38 H72         2.9670   -0.9080    1.6210 hc        1 SNL      0.052700
     39 H101       -0.9280    2.3490    1.1790 hc        1 SNL      0.046367
     40 H102        0.8510    2.2430    1.4980 hc        1 SNL      0.046367
     41 H103       -0.3290    1.9800    2.8510 hc        1 SNL      0.046367
     42 H111       -1.9650    1.1640    5.6280 hc        1 SNL      0.042033
     43 H112       -0.1560    1.2990    5.6510 hc        1 SNL      0.042033
     44 H113       -1.0470    0.7720    7.1370 hc        1 SNL      0.042033
     45 H121       -2.5130   -0.7560    7.9490 hc        1 SNL      0.073200
     46 H122       -3.3850   -2.2930    7.5560 hc        1 SNL      0.073200
     47 H131        0.0460   -3.8120    2.4310 ha        1 SNL      0.004000
     48 H132       -0.3840   -3.6320    1.9360 ha        1 SNL      0.004000
     49 H141       -0.0980   -2.0490   -0.3740 ha        1 SNL      0.166000
     50 H142       -1.4210   -1.2410   -2.6360 ha        1 SNL      0.179000
     51 H171        2.4210   -5.3310    3.4930 hc        1 SNL      0.074367
     52 H172        4.2380   -5.2120    3.5460 hc        1 SNL      0.074367
     53 H173        3.3160   -5.6530    5.0450 hc        1 SNL      0.074367
     54 H19         0.8980   -2.6230    7.9540 ha        1 SNL      0.151000
     55 H22         2.8130   -0.7730    4.1390 h1        1 SNL      0.087700
     56 H23         0.8440    0.6910    3.9680 hc        1 SNL      0.069700
     57 H24        -0.6920   -1.9970    3.8300 hc        1 SNL      0.063700
     58 C21         1.6060   -1.0400    5.9040 c3        1 SNL     -0.054200
     59 H211        2.3670   -1.6760    6.4330 hc        1 SNL      0.072200
     60 C16         3.2190   -3.5850    4.4990 c         1 SNL      0.577700
     61 H212        1.8060    0.0300    6.1980 hc        1 SNL      0.072200
@<TRIPOS>BOND
     1    1    8 1   
     2    1    9 1   
     3    1   28 1   
     4    1   29 1   
     5    2    3 1   
     6    2    7 1   
     7    2   30 1   
     8    2   31 1   
     9    3    5 1   
    10    3    9 1   
    11    3   10 1   
    12    4    6 1   
    13    4   11 1   
    14    4   19 1   
    15    4   22 1   
    16    5    8 1   
    17    5   21 1   
    18    5   32 1   
    19    6   12 1   
    20    6   33 1   
    21    6   34 1   
    22    7   22 1   
    23    7   35 1   
    24    7   36 1   
    25    8   37 1   
    26    8   38 1   
    27    9   13 1   
    28    9   24 1   
    29   10   39 1   
    30   10   40 1   
    31   10   41 1   
    32   11   42 1   
    33   11   43 1   
    34   11   44 1   
    35   12   17 1   
    36   12   45 1   
    37   12   46 1   
    38   13   14 2   
    39   13   49 1   
    40   14   15 1   
    41   14   50 1   
    42   15   23 2   
    43   15   24 1   
    44   16   51 1   
    45   16   52 1   
    46   16   53 1   
    47   16   60 1   
    48   17   18 1   
    49   17   26 2   
    50   18   19 2   
    51   18   54 1   
    52   19   58 1   
    53   20   21 1   
    54   20   27 1   
    55   20   55 1   
    56   20   58 1   
    57   21   22 1   
    58   21   56 1   
    59   22   57 1   
    60   25   60 2   
    61   27   60 1   
    62   47   48 1   
    63   58   59 1   
    64   58   61 1   
@<TRIPOS>SUBSTRUCTURE
     1 SNL         1 TEMP              0 ****  ****    0 ROOT
