@<TRIPOS>MOLECULE
molecule
   61    65     1     0     0
SMALL
bcc


@<TRIPOS>ATOM
      1 C8           0.0000     0.0000     0.0000 c3         1 SNL      -0.096400
      2 C4           0.8800     0.8620     3.5710 c3         1 SNL      -0.066400
      3 C5           0.8540     1.0010     2.0620 c3         1 SNL      -0.056000
      4 C2           4.7400     1.0860     3.8120 c3         1 SNL      -0.023800
      5 C6           1.8990     0.0000     1.4940 c3         1 SNL      -0.073700
      6 C1           4.8530     1.0290     5.3260 c3         1 SNL      -0.064400
      7 C3           2.2690     1.3170     4.0460 c3         1 SNL      -0.080400
      8 C7           1.5550     0.0000     0.0000 c3         1 SNL      -0.074400
      9 C9          -0.4260     0.6010     1.3530 c3         1 SNL       0.156800
     10 C10          1.2380     2.4280     1.6670 c3         1 SNL      -0.086100
     11 C11          4.7640     2.5570     3.3900 c3         1 SNL      -0.089100
     12 C12          6.3020     1.1710     5.7920 c3         1 SNL      -0.179400
     13 C13         -1.2240    -0.4320     2.1660 c3         1 SNL      -0.111400
     14 C14         -2.6810    -0.0790     1.7880 c3         1 SNL      -0.203400
     15 C15         -2.5940     1.2870     1.1410 c          1 SNL       0.732600
     16 C16          5.3970    -2.8590     1.0660 c          1 SNL       0.567700
     17 C17          5.6540    -4.3240     1.3110 c3         1 SNL      -0.175100
     18 C18          7.1000     0.0590     5.1400 c          1 SNL       0.570300
     19 C19          6.9320    -0.1010     3.6910 ce         1 SNL      -0.251200
     20 C20          5.8440     0.3770     3.0900 c2         1 SNL      -0.045400
     21 C21          5.7310     0.1980     1.5870 c3         1 SNL      -0.052200
     22 C22          4.3510    -0.3790     1.2640 c3         1 SNL       0.031400
     23 C23          3.2720     0.5310     1.8560 c3         1 SNL      -0.049700
     24 C24          3.3840     0.5100     3.3890 c3         1 SNL      -0.058700
     25 O57         -3.5280     1.8960     0.6740 o          1 SNL      -0.566500
     26 O58         -1.3230     1.7210     1.1620 os         1 SNL      -0.392900
     27 O59          6.0320    -2.2650     0.2220 o          1 SNL      -0.543100
     28 O60          7.8360    -0.6600     5.7820 o          1 SNL      -0.521100
     29 S61          4.2060    -2.0350     1.9790 ss         1 SNL      -0.263700
     30 H81         -0.3710     0.6130    -0.8120 hc         1 SNL       0.060700
     31 H82         -0.3720    -1.0140    -0.0900 hc         1 SNL       0.060700
     32 H41          0.7180    -0.1730     3.8480 hc         1 SNL       0.050200
     33 H42          0.1160     1.4910     4.0110 hc         1 SNL       0.050200
     34 H6           1.7470    -0.9850     1.9180 hc         1 SNL       0.072700
     35 H11          4.2670     1.8330     5.7530 hc         1 SNL       0.053200
     36 H12          4.4640     0.0790     5.6720 hc         1 SNL       0.053200
     37 H31          2.3990     2.3640     3.7990 hc         1 SNL       0.050700
     38 H32          2.3310     1.1920     5.1210 hc         1 SNL       0.050700
     39 H71          1.9360     0.8930    -0.4790 hc         1 SNL       0.053200
     40 H72          1.9360    -0.8930    -0.4790 hc         1 SNL       0.053200
     41 H101         0.8390     3.1240     2.3950 hc         1 SNL       0.046033
     42 H102         2.3170     2.5170     1.6360 hc         1 SNL       0.046033
     43 H103         0.8300     2.6550     0.6890 hc         1 SNL       0.046033
     44 H111         4.4080     2.6460     2.3710 hc         1 SNL       0.041700
     45 H112         5.7780     2.9330     3.4520 hc         1 SNL       0.041700
     46 H113         4.1250     3.1320     4.0480 hc         1 SNL       0.041700
     47 H121         6.6940     2.1320     5.4840 hc         1 SNL       0.070200
     48 H122         6.3510     1.0750     6.8700 hc         1 SNL       0.070200
     49 H131        -1.0590    -0.2980     3.2280 hc         1 SNL       0.068200
     50 H132        -0.9800    -1.4400     1.8530 hc         1 SNL       0.068200
     51 H141        -3.2990    -0.0350     2.6770 hc         1 SNL       0.081700
     52 H142        -3.0740    -0.8030     1.0850 hc         1 SNL       0.081700
     53 H171         5.3720    -4.5760     2.3260 hc         1 SNL       0.069033
     54 H172         5.0690    -4.9150     0.6160 hc         1 SNL       0.069033
     55 H173         6.7070    -4.5350     1.1660 hc         1 SNL       0.069033
     56 H19          7.7040    -0.5880     3.1080 ha         1 SNL       0.153000
     57 H211         5.8460     1.1570     1.0970 hc         1 SNL       0.075200
     58 H212         6.4990    -0.4860     1.2450 hc         1 SNL       0.075200
     59 H22          4.2270    -0.4330     0.1890 h1         1 SNL       0.089700
     60 H23          3.3910     1.5420     1.4860 hc         1 SNL       0.085700
     61 H24          3.3190    -0.5160     3.7290 hc         1 SNL       0.069700
@<TRIPOS>BOND
     1     1     8 1
     2     1     9 1
     3     1    30 1
     4     1    31 1
     5     2     3 1
     6     2     7 1
     7     2    32 1
     8     2    33 1
     9     3     5 1
    10     3     9 1
    11     3    10 1
    12     4     6 1
    13     4    11 1
    14     4    20 1
    15     4    24 1
    16     5     8 1
    17     5    23 1
    18     5    34 1
    19     6    12 1
    20     6    35 1
    21     6    36 1
    22     7    24 1
    23     7    37 1
    24     7    38 1
    25     8    39 1
    26     8    40 1
    27     9    13 1
    28     9    26 1
    29    10    41 1
    30    10    42 1
    31    10    43 1
    32    11    44 1
    33    11    45 1
    34    11    46 1
    35    12    18 1
    36    12    47 1
    37    12    48 1
    38    13    14 1
    39    13    49 1
    40    13    50 1
    41    14    15 1
    42    14    51 1
    43    14    52 1
    44    15    25 2
    45    15    26 1
    46    16    17 1
    47    16    27 2
    48    16    29 1
    49    17    53 1
    50    17    54 1
    51    17    55 1
    52    18    19 1
    53    18    28 2
    54    19    20 2
    55    19    56 1
    56    20    21 1
    57    21    22 1
    58    21    57 1
    59    21    58 1
    60    22    23 1
    61    22    29 1
    62    22    59 1
    63    23    24 1
    64    23    60 1
    65    24    61 1
@<TRIPOS>SUBSTRUCTURE
     1 SNL         1 TEMP              0 ****  ****    0 ROOT
