@<TRIPOS>MOLECULE
molecule
   19    18     1     0     0
SMALL
bcc


@<TRIPOS>ATOM
      1 N            0.0000     0.0000     0.0000 n3         1 SNM      -0.686600
      2 CA           1.4680     0.0000     0.0000 c3         1 SNM       0.068500
      3 CB           1.9800     1.2480    -0.7220 c3         1 SNM       0.160400
      4 OG           1.5720     2.4140    -0.0020 oh         1 SNM      -0.567800
      5 C            1.9700     0.0000     1.4210 c          1 SNM       0.898600
      6 O            1.3000     0.4900     2.2980 o          1 SNM      -0.836300
      7 C1          -0.5260     0.1360    -1.3650 c3         1 SNM       0.153600
      8 C2          -0.5280    -1.2070     0.6490 c3         1 SNM       0.153600
      9 O1           3.1630    -0.5430     1.7120 o          1 SNM      -0.836300
     10 H2           1.8290    -0.8850    -0.5100 h1         1 SNM       0.020700
     11 H3           3.0610     1.2160    -0.7750 h1         1 SNM       0.001700
     12 H4           1.5690     1.2800    -1.7240 h1         1 SNM       0.001700
     13 H5           2.0360     3.1660    -0.3330 ho         1 SNM       0.362000
     14 H6          -0.5390     1.1830    -1.6450 h1         1 SNM       0.017533
     15 H7           0.1060    -0.4130    -2.0520 h1         1 SNM       0.017533
     16 H8          -1.5330    -0.2610    -1.4050 h1         1 SNM       0.017533
     17 H9          -0.1480    -2.0850     0.1420 h1         1 SNM       0.017533
     18 H10         -0.2150    -1.2250     1.6860 h1         1 SNM       0.017533
     19 H11         -1.6100    -1.2000     0.5990 h1         1 SNM       0.017533
@<TRIPOS>BOND
     1     6     5 1
     2     5     2 1
     3     8     1 1
     4     2     3 1
     5     2     1 1
     6     3     4 1
     7     1     7 1
     8     5     9 1
     9     2    10 1
    10     3    11 1
    11     3    12 1
    12     4    13 1
    13     7    14 1
    14     7    15 1
    15     7    16 1
    16     8    17 1
    17     8    18 1
    18     8    19 1
@<TRIPOS>SUBSTRUCTURE
     1 SNM         1 TEMP              0 ****  ****    0 ROOT
