@<TRIPOS>MOLECULE
SNO
   19    20     1     0     0
SMALL
bcc


@<TRIPOS>ATOM
      1 C1           0.0000     0.0000     0.0000 ca         1 SNO      -0.451200
      2 C2           1.3830     0.0000     0.0000 ca         1 SNO      -0.009500
      3 C3           2.0750     0.0000     1.1970 ca         1 SNO      -0.106500
      4 C4           1.3830     0.0000     2.3940 ca         1 SNO      -0.028300
      5 C5           0.0010     0.0010     2.3950 ca         1 SNO      -0.106500
      6 C6          -0.6900     0.0050     1.1970 ca         1 SNO      -0.009500
      7 C7           2.1380    -0.0010     3.6990 cx         1 SNO       0.128400
      8 C8           2.2640     1.3250     4.4510 cx         1 SNO       0.146400
      9 N1          -0.7410     0.0000    -1.2820 no         1 SNO       1.049200
     10 O1          -0.1320     0.0000    -2.3360 o          1 SNO      -0.450000
     11 O2          -1.9580    -0.0040    -1.2810 o          1 SNO      -0.450000
     12 O3           1.4020     0.2730     4.8930 op         1 SNO      -0.385600
     13 H22          1.9240    -0.0020    -0.9380 ha         1 SNO       0.133500
     14 H33          3.1580    -0.0000     1.1960 ha         1 SNO       0.125000
     15 H55         -0.5400     0.0030     3.3330 ha         1 SNO       0.125000
     16 H66         -1.7730     0.0050     1.1980 ha         1 SNO       0.133500
     17 H77          2.9740    -0.6780     3.8260 h1         1 SNO       0.067700
     18 H81          1.7730     2.1750     3.9920 h1         1 SNO       0.043700
     19 H82          3.1760     1.4570     5.0210 h1         1 SNO       0.043700
@<TRIPOS>BOND
     1     1     2 ar  
     2     1     6 ar  
     3     1     9 1   
     4     2     3 ar  
     5     2    13 1   
     6     3     4 ar  
     7     3    14 1   
     8     4     5 ar  
     9     4     7 1   
    10     5     6 ar  
    11     5    15 1   
    12     6    16 1   
    13     7     8 1   
    14     7    12 1   
    15     7    17 1   
    16     8    12 1   
    17     8    18 1   
    18     8    19 1   
    19     9    10 1   
    20     9    11 1   
@<TRIPOS>SUBSTRUCTURE
     1 SNO         1 TEMP              0 ****  ****    0 ROOT
