@<TRIPOS>MOLECULE
SNP
   40    41     1     0     0
SMALL
bcc


@<TRIPOS>ATOM
      1 C1           0.0000     0.0000     0.0000 ca         1 SNP       0.157100
      2 C2           1.3670     0.0000     0.0000 ca         1 SNP      -0.244000
      3 C3           2.0830     0.0000     1.1940 ca         1 SNP      -0.052000
      4 C4           1.4420    -0.0010     2.3960 ca         1 SNP      -0.133000
      5 C5          -0.6550    -0.0000     3.6610 ca         1 SNP      -0.101000
      6 C6          -2.0160     0.0000     3.6640 ca         1 SNP      -0.087000
      7 C7          -2.7360    -0.0010     2.4710 ca         1 SNP      -0.115000
      8 C8          -2.0970    -0.0020     1.2680 ca         1 SNP      -0.067000
      9 C9          -0.6940     0.0050     1.2260 ca         1 SNP      -0.061000
     10 C10          0.0380     0.0000     2.4390 ca         1 SNP      -0.001000
     11 O1          -0.6820    -0.0010    -1.1740 os         1 SNP      -0.272900
     12 C11          0.2920    -0.0020    -2.2190 c3         1 SNP       0.153400
     13 C12         -0.4150    -0.0020    -3.5750 c3         1 SNP       0.182100
     14 O2          -1.2330     1.1630    -3.6860 oh         1 SNP      -0.563800
     15 C13          0.6280    -0.0020    -4.6940 c3         1 SNP       0.117800
     16 N1          -0.0500    -0.0030    -5.9970 n7         1 SNP      -0.562200
     17 C14          1.0010    -0.0020    -7.0220 c3         1 SNP       0.106500
     18 C15          0.4950    -0.7240    -8.2720 c3         1 SNP       0.001400
     19 C16          1.3660     1.4390    -7.3780 c3         1 SNP       0.001400
     20 H2           1.9010     0.0000    -0.9430 ha         1 SNP       0.131000
     21 H3           3.1660     0.0000     1.1670 ha         1 SNP       0.098000
     22 H4           2.0130    -0.0010     3.3170 ha         1 SNP       0.108000
     23 H5          -0.1090     0.0000     4.5970 ha         1 SNP       0.107000
     24 H6          -2.5470     0.0010     4.6080 ha         1 SNP       0.099000
     25 H7          -3.8180     0.0000     2.5010 ha         1 SNP       0.102000
     26 H8          -2.6700    -0.0030     0.3480 ha         1 SNP       0.114000
     27 H112         0.9120    -0.8860    -2.1340 h1         1 SNP       0.021700
     28 H111         0.9120     0.8830    -2.1350 h1         1 SNP       0.021700
     29 H12         -1.0340    -0.8870    -3.6590 h1         1 SNP       0.002700
     30 H2O1        -2.1360     0.9060    -3.7730 ho         1 SNP       0.393000
     31 H132         1.2480    -0.8860    -4.6090 h1         1 SNP       0.018200
     32 H131         1.2470     0.8830    -4.6100 h1         1 SNP       0.018200
     33 H1          -0.6020    -0.8330    -6.0850 hn         1 SNP       0.250800
     34 H14          1.8770    -0.5130    -6.6400 h1         1 SNP       0.008700
     35 H153        -0.4110    -0.2460    -8.6240 hc         1 SNP       0.007867
     36 H152         1.2520    -0.6780    -9.0460 hc         1 SNP       0.007867
     37 H151         0.2870    -1.7600    -8.0320 hc         1 SNP       0.007867
     38 H163         1.8700     1.4580    -8.3360 hc         1 SNP       0.007867
     39 H162         2.0220     1.8440    -6.6170 hc         1 SNP       0.007867
     40 H161         0.4640     2.0370    -7.4320 hc         1 SNP       0.007867
@<TRIPOS>BOND
     1     1     2 ar  
     2     1     9 ar  
     3     1    11 1   
     4     2     3 ar  
     5     2    20 1   
     6     3     4 ar  
     7     3    21 1   
     8     4    10 ar  
     9     4    22 1   
    10     5     6 ar  
    11     5    10 ar  
    12     5    23 1   
    13     6     7 ar  
    14     6    24 1   
    15     7     8 ar  
    16     7    25 1   
    17     8     9 ar  
    18     8    26 1   
    19     9    10 ar  
    20    11    12 1   
    21    12    13 1   
    22    12    27 1   
    23    12    28 1   
    24    13    14 1   
    25    13    15 1   
    26    13    29 1   
    27    14    30 1   
    28    15    16 1   
    29    15    31 1   
    30    15    32 1   
    31    16    17 1   
    32    16    33 1   
    33    17    18 1   
    34    17    19 1   
    35    17    34 1   
    36    18    35 1   
    37    18    36 1   
    38    18    37 1   
    39    19    38 1   
    40    19    39 1   
    41    19    40 1   
@<TRIPOS>SUBSTRUCTURE
     1 SNP         1 TEMP              0 ****  ****    0 ROOT
