@<TRIPOS>MOLECULE
molecule
   28    29     1     0     0
SMALL
bcc


@<TRIPOS>ATOM
      1 C1           0.0000     0.0000     0.0000 c          1 SNR       0.819500
      2 N2           1.3400     0.0000     0.0000 ns         1 SNR      -0.601900
      3 C3           1.8170     0.0000     1.3910 c3         1 SNR       0.082700
      4 C4           0.5330    -0.0020     2.2270 c3         1 SNR       0.085700
      5 N5          -0.5430    -0.0000     1.2240 ns         1 SNR      -0.586900
      6 C6           0.3820     1.2410     3.1310 c3         1 SNR       0.042400
      7 S7           1.4760     2.4530     2.2730 ss         1 SNR      -0.339200
      8 C8           2.7060     1.2410     1.6210 c3         1 SNR      -0.001300
      9 O11         -0.6630     0.0010    -1.0200 o          1 SNR      -0.696500
     10 C12         -1.0670     1.7290     3.1540 c3         1 SNR      -0.076400
     11 C13         -1.1620     3.0050     3.9920 c3         1 SNR      -0.064400
     12 C14         -2.6100     3.4940     4.0160 c3         1 SNR      -0.183400
     13 C15         -2.7040     4.7510     4.8420 c          1 SNR       0.892600
     14 O16         -3.8880     5.3620     5.0040 o          1 SNR      -0.853800
     15 O17         -1.7130     5.2080     5.3590 o          1 SNR      -0.853800
     16 HN2          1.9210     0.0000    -0.8150 hn         1 SNR       0.353500
     17 H3           2.3850    -0.9020     1.5850 h1         1 SNR       0.051700
     18 H4           0.4810    -0.9040     2.8240 h1         1 SNR       0.057700
     19 HN5         -1.5240    -0.0000     1.4250 hn         1 SNR       0.369500
     20 H6           0.7450     1.0360     4.1310 h1         1 SNR       0.076700
     21 H81          3.3870     1.0050     2.4300 h1         1 SNR       0.084200
     22 H82          3.0230     1.5960     0.6480 h1         1 SNR       0.084200
     23 H11         -1.6990     0.9640     3.5870 hc         1 SNR       0.046700
     24 H21         -1.3930     1.9370     2.1420 hc         1 SNR       0.046700
     25 H12         -0.5290     3.7700     3.5580 hc         1 SNR       0.054200
     26 H22         -0.8340     2.7970     5.0040 hc         1 SNR       0.054200
     27 H13         -3.2420     2.7290     4.4500 hc         1 SNR       0.028200
     28 H23         -2.9370     3.7020     3.0040 hc         1 SNR       0.028200
@<TRIPOS>BOND
     1     1     2 1
     2     1     5 1
     3     1     9 2
     4     2     3 1
     5     2    16 1
     6     3     4 1
     7     3     8 1
     8     3    17 1
     9     4     5 1
    10     4     6 1
    11     4    18 1
    12     5    19 1
    13     6     7 1
    14     6    10 1
    15     6    20 1
    16     7     8 1
    17     8    21 1
    18     8    22 1
    19    10    11 1
    20    10    23 1
    21    10    24 1
    22    11    12 1
    23    11    25 1
    24    11    26 1
    25    12    13 1
    26    12    27 1
    27    12    28 1
    28    13    14 1
    29    13    15 1
@<TRIPOS>SUBSTRUCTURE
     1 SNR         1 TEMP              0 ****  ****    0 ROOT
