@<TRIPOS>MOLECULE
molecule
   67    71     1     0     0
SMALL
bcc


@<TRIPOS>ATOM
      1 N1           0.0000     0.0000     0.0000 nb         1 SNS      -0.691000
      2 C2           1.3300     0.0000     0.0000 ca         1 SNS       0.461100
      3 C3           2.0510     0.0000     1.2100 ca         1 SNS      -0.227800
      4 C4           3.4160    -0.0000     1.1820 ca         1 SNS       0.086100
      5 C5           4.1270    -0.0010    -0.0260 ca         1 SNS      -0.129500
      6 C6           3.4880    -0.0010    -1.2230 ca         1 SNS      -0.091500
      7 C7           2.0790    -0.0010    -1.2610 ca         1 SNS      -0.176800
      8 C8           1.3870    -0.0010    -2.4740 ca         1 SNS      -0.053000
      9 C9          -0.0090     0.0000    -2.4310 ca         1 SNS      -0.176800
     10 C10         -0.7770     0.0000    -3.6140 ca         1 SNS      -0.091500
     11 C11         -2.1320     0.0010    -3.5340 ca         1 SNS      -0.129500
     12 C12         -2.7910     0.0020    -2.2970 ca         1 SNS       0.086100
     13 C13         -2.1030     0.0020    -1.1190 ca         1 SNS      -0.227800
     14 C14         -0.6940    -0.0000    -1.1340 ca         1 SNS       0.461100
     15 N15         -4.1870     0.0020    -2.2710 ns         1 SNS      -0.480100
     16 C16         -4.8790    -0.6670    -3.2140 c          1 SNS       0.658100
     17 O17         -4.2920    -1.3470    -4.0290 o          1 SNS      -0.592600
     18 C18         -6.3820    -0.5680    -3.2570 c3         1 SNS      -0.155900
     19 C19         -6.9160    -1.4150    -4.4140 c3         1 SNS       0.166800
     20 N20         -8.3810    -1.3200    -4.4560 n3         1 SNS      -0.707600
     21 C21         -8.9500    -2.3050    -5.4010 c3         1 SNS       0.120800
     22 C22        -10.1930    -1.6540    -6.0380 c3         1 SNS       0.159600
     23 F23        -11.3410    -2.3860    -5.7190 f          1 SNS      -0.239300
     24 C24        -10.2690    -0.2390    -5.4190 c3         1 SNS      -0.111400
     25 C25         -8.8140     0.0120    -4.9490 c3         1 SNS       0.138800
     26 N26          4.1210    -0.0000     2.3860 ns         1 SNS      -0.480100
     27 C27          5.2880    -0.6680     2.4850 c          1 SNS       0.658100
     28 O28          5.6760    -1.3490     1.5590 o          1 SNS      -0.592600
     29 C29          6.1090    -0.5710     3.7450 c3         1 SNS      -0.155900
     30 C30          7.3740    -1.4180     3.5970 c3         1 SNS       0.166800
     31 N31          8.1740    -1.3230     4.8240 n3         1 SNS      -0.707600
     32 C32          9.5090    -1.9290     4.6350 c3         1 SNS       0.120800
     33 C33          9.9100    -2.5680     5.9790 c3         1 SNS       0.159600
     34 F34         11.0620    -1.9560     6.4830 f          1 SNS      -0.239300
     35 C35          8.7110    -2.3130     6.9200 c3         1 SNS      -0.111400
     36 C36          7.5390    -2.0790     5.9330 c3         1 SNS       0.138800
     37 H3           1.5260     0.0000     2.1570 ha         1 SNS       0.149000
     38 H5           5.2100    -0.0010    -0.0030 ha         1 SNS       0.158500
     39 H6           4.0580    -0.0010    -2.1450 ha         1 SNS       0.139000
     40 H8           1.9000    -0.2660    -3.3910 ha         1 SNS       0.144000
     41 H10         -0.2890    -0.0010    -4.5810 ha         1 SNS       0.139000
     42 H11         -2.7170     0.0000    -4.4460 ha         1 SNS       0.158500
     43 H13         -2.6370     0.0030    -0.1770 ha         1 SNS       0.149000
     44 HN15        -4.6740     0.5130    -1.5620 hn         1 SNS       0.327500
     45 H18         -6.7940    -0.9310    -2.3230 hc         1 SNS       0.070950
     46 H18A        -6.6720     0.4660    -3.4020 hc         1 SNS       0.070950
     47 H19         -6.6250    -2.4490    -4.2680 h1         1 SNS       0.053950
     48 H19A        -6.5040    -1.0520    -5.3470 h1         1 SNS       0.053950
     49 H21         -8.2240    -2.5400    -6.1690 h1         1 SNS       0.058450
     50 H21A        -9.2380    -3.2030    -4.8680 h1         1 SNS       0.058450
     51 H22        -10.0700    -1.5860    -7.1120 h1         1 SNS       0.058200
     52 H24        -10.5590     0.4890    -6.1660 hc         1 SNS       0.065700
     53 H24A       -10.9490    -0.2270    -4.5760 hc         1 SNS       0.065700
     54 H25         -8.7940     0.7400    -4.1460 h1         1 SNS       0.045450
     55 H25A        -8.1950     0.3310    -5.7790 h1         1 SNS       0.045450
     56 HN26         3.7090     0.4050     3.2040 hn         1 SNS       0.327500
     57 H29          5.5270    -0.9340     4.5840 hc         1 SNS       0.070950
     58 H29A         6.3840     0.4630     3.9170 hc         1 SNS       0.070950
     59 H30          7.9550    -1.0550     2.7580 h1         1 SNS       0.053950
     60 H30A         7.0980    -2.4510     3.4250 h1         1 SNS       0.053950
     61 H32         10.2260    -1.1640     4.3630 h1         1 SNS       0.058450
     62 H32A         9.4630    -2.6900     3.8650 h1         1 SNS       0.058450
     63 H33         10.0680    -3.6320     5.8540 h1         1 SNS       0.058200
     64 H35          8.8810    -1.4310     7.5260 hc         1 SNS       0.065700
     65 H35A         8.5210    -3.1820     7.5390 hc         1 SNS       0.065700
     66 H36          7.1480    -3.0240     5.5750 h1         1 SNS       0.045450
     67 H36A         6.7600    -1.4880     6.4000 h1         1 SNS       0.045450
@<TRIPOS>BOND
     1     1     2 ar
     2     1    14 ar
     3     2     3 ar
     4     2     7 ar
     5     3     4 ar
     6     4     5 ar
     7     4    26 1
     8     5     6 ar
     9     6     7 ar
    10     7     8 ar
    11     8     9 ar
    12     9    10 ar
    13     9    14 ar
    14    10    11 ar
    15    11    12 ar
    16    12    13 ar
    17    12    15 1
    18    13    14 ar
    19    15    16 1
    20    16    17 2
    21    16    18 1
    22    18    19 1
    23    19    20 1
    24    20    21 1
    25    20    25 1
    26    21    22 1
    27    22    23 1
    28    22    24 1
    29    24    25 1
    30    26    27 1
    31    27    28 2
    32    27    29 1
    33    29    30 1
    34    30    31 1
    35    31    32 1
    36    31    36 1
    37    32    33 1
    38    33    34 1
    39    33    35 1
    40    35    36 1
    41     3    37 1
    42     5    38 1
    43     6    39 1
    44     8    40 1
    45    10    41 1
    46    11    42 1
    47    13    43 1
    48    15    44 1
    49    18    45 1
    50    18    46 1
    51    19    47 1
    52    19    48 1
    53    21    49 1
    54    21    50 1
    55    22    51 1
    56    24    52 1
    57    24    53 1
    58    25    54 1
    59    25    55 1
    60    26    56 1
    61    29    57 1
    62    29    58 1
    63    30    59 1
    64    30    60 1
    65    32    61 1
    66    32    62 1
    67    33    63 1
    68    35    64 1
    69    35    65 1
    70    36    66 1
    71    36    67 1
@<TRIPOS>SUBSTRUCTURE
     1 SNS         1 TEMP              0 ****  ****    0 ROOT
