@<TRIPOS>MOLECULE
SNT
   55    59     1     0     0
SMALL
bcc


@<TRIPOS>ATOM
      1 C4           0.0000     0.0000     0.0000 ca         1 SNT      -0.107000
      2 C3           1.3890     0.0000     0.0000 ca         1 SNT      -0.097500
      3 C2           2.0780     0.0000     1.1970 ca         1 SNT      -0.088500
      4 C1           1.3870    -0.0010     2.3940 ca         1 SNT      -0.094000
      5 N1          -0.7020    -0.0050    -1.2120 nh         1 SNT       0.400000
      6 N2          -2.2710     0.5370    -5.4860 n2         1 SNT      -0.000000
      7 N3          -2.2260     0.9140    -6.8350 n3         1 SNT       0.026000
      8 N4          -2.6830     2.4200    -9.1350 n3         1 SNT      -0.059000
      9 N5          -1.9160    -0.6610    -1.4540 n2         1 SNT      -0.234000
     10 C5          -0.3280     0.6270    -2.3470 c2         1 SNT      -0.167000
     11 C6          -1.2910     0.3690    -3.2980 c3         1 SNT      -0.247000
     12 C7          -1.2970     0.8570    -4.6910 c2         1 SNT      -0.464000
     13 C8          -3.2620     0.4640    -7.7780 c3         1 SNT      -0.061500
     14 C9          -3.8030     1.6870    -8.5260 c3         1 SNT      -0.114000
     15 C10         -3.1710     3.5000   -10.0030 c3         1 SNT      -0.031000
     16 C11         -2.0200     4.0660   -10.7940 ca         1 SNT      -0.086000
     17 C12         -1.2800     5.1160   -10.2830 ca         1 SNT      -0.090500
     18 C13         -0.2250     5.6360   -11.0100 ca         1 SNT      -0.101000
     19 C14          0.0910     5.1040   -12.2460 ca         1 SNT      -0.100000
     20 C15          0.0050     0.0010     2.3980 ca         1 SNT      -0.088500
     21 C16         -0.6910     0.0000     1.2040 ca         1 SNT      -0.097500
     22 C17         -2.2720    -0.4450    -2.6920 c2         1 SNT      -0.051000
     23 C18         -3.5180    -0.9720    -3.3580 c3         1 SNT      -0.032000
     24 C19         -1.7750     2.9420    -8.1100 c3         1 SNT      -0.114000
     25 C20         -1.1470     1.7730    -7.3440 c3         1 SNT      -0.061500
     26 C21         -0.6490     4.0530   -12.7570 ca         1 SNT      -0.101000
     27 C22         -1.7010     3.5320   -12.0290 ca         1 SNT      -0.090500
     28 C23          0.9130     1.4600    -2.5360 c3         1 SNT      -0.040000
     29 H1           1.9310     0.0000    -0.9380 ha         1 SNT       0.126000
     30 H2           3.1620    -0.0000     1.1970 ha         1 SNT       0.107500
     31 H3           1.9300    -0.0000     3.3310 ha         1 SNT       0.105000
     32 H5          -1.8580     1.3480    -3.9060 DU         1 SNT       0.301000
     33 H6          -2.8310    -0.2330    -8.4860 h1         1 SNT       0.078250
     34 H7          -4.0670    -0.0130    -7.2330 h1         1 SNT       0.078250
     35 H8          -4.3210     2.3350    -7.8290 h1         1 SNT       0.057500
     36 H9          -4.4850     1.3620    -9.3020 h1         1 SNT       0.057500
     37 H10         -3.9180     3.1080   -10.6830 h1         1 SNT       0.051500
     38 H11         -3.6100     4.2810    -9.3950 h1         1 SNT       0.051500
     39 H12         -1.5280     5.5330    -9.3140 ha         1 SNT       0.106500
     40 H13          0.3550     6.4580   -10.6100 ha         1 SNT       0.102500
     41 H14          0.9170     5.5120   -12.8160 ha         1 SNT       0.102000
     42 H15         -0.5340     0.0010     3.3380 ha         1 SNT       0.107500
     43 H16         -1.7750     0.0010     1.2080 ha         1 SNT       0.126000
     44 H17         -4.0470    -1.6210    -2.6710 hc         1 SNT       0.056333
     45 H18         -3.2440    -1.5310    -4.2440 hc         1 SNT       0.056333
     46 H19         -4.1560    -0.1430    -3.6370 hc         1 SNT       0.056333
     47 H20         -2.3310     3.5670    -7.4220 h1         1 SNT       0.057500
     48 H21         -0.9940     3.5230    -8.5840 h1         1 SNT       0.057500
     49 H22         -0.5650     2.1550    -6.5140 h1         1 SNT       0.078250
     50 H23         -0.5120     1.2020    -8.0090 h1         1 SNT       0.078250
     51 H24         -0.4000     3.6350   -13.7250 ha         1 SNT       0.102500
     52 H25         -2.2810     2.7090   -12.4290 ha         1 SNT       0.106500
     53 H26          0.7670     2.1430    -3.3640 hc         1 SNT       0.060667
     54 H27          1.7550     0.8120    -2.7480 hc         1 SNT       0.060667
     55 H28          1.1100     2.0250    -1.6330 hc         1 SNT       0.060667
@<TRIPOS>BOND
     1     1     2 1   
     2     1     5 1   
     3     1    21 1   
     4     2     3 1   
     5     2    29 1   
     6     3     4 1   
     7     3    30 1   
     8     4    20 1   
     9     4    31 1   
    10     5     9 1   
    11     5    10 1   
    12     6     7 1   
    13     6    12 1   
    14     7    13 1   
    15     7    25 1   
    16     8    14 1   
    17     8    15 1   
    18     8    24 1   
    19     9    22 1   
    20    10    11 1   
    21    10    28 1   
    22    11    12 1   
    23    11    22 1   
    24    11    32 1   
    25    12    32 1   
    26    13    14 1   
    27    13    33 1   
    28    13    34 1   
    29    14    35 1   
    30    14    36 1   
    31    15    16 1   
    32    15    37 1   
    33    15    38 1   
    34    16    17 1   
    35    16    27 1   
    36    17    18 1   
    37    17    39 1   
    38    18    19 1   
    39    18    40 1   
    40    19    26 1   
    41    19    41 1   
    42    20    21 1   
    43    20    42 1   
    44    21    43 1   
    45    22    23 1   
    46    23    44 1   
    47    23    45 1   
    48    23    46 1   
    49    24    25 1   
    50    24    47 1   
    51    24    48 1   
    52    25    49 1   
    53    25    50 1   
    54    26    27 1   
    55    26    51 1   
    56    27    52 1   
    57    28    53 1   
    58    28    54 1   
    59    28    55 1   
@<TRIPOS>SUBSTRUCTURE
     1 SNT         1 TEMP              0 ****  ****    0 ROOT
