@<TRIPOS>MOLECULE
molecule
   55    58     1     0     0
SMALL
bcc


@<TRIPOS>ATOM
      1 C4           0.0000     0.0000     0.0000 ca         1 SNT       0.035800
      2 C3           1.3890     0.0000     0.0000 ca         1 SNT      -0.135500
      3 C2           2.0780     0.0000     1.1970 ca         1 SNT      -0.114500
      4 C1           1.3870    -0.0010     2.3940 ca         1 SNT      -0.135000
      5 N1          -0.7020    -0.0050    -1.2120 na         1 SNT       0.152300
      6 N2          -2.2710     0.5370    -5.4860 n2         1 SNT      -0.384400
      7 N3          -2.2260     0.9140    -6.8350 nh         1 SNT      -0.585700
      8 N4          -2.6830     2.4200    -9.1350 n3         1 SNT      -0.722600
      9 N5          -1.9160    -0.6610    -1.4540 nc         1 SNT      -0.515800
     10 C5          -0.3280     0.6270    -2.3470 cc         1 SNT      -0.051600
     11 C6          -1.2910     0.3690    -3.2980 cd         1 SNT      -0.326200
     12 C7          -1.2970     0.8570    -4.6910 cf         1 SNT       0.379800
     13 C8          -3.2620     0.4640    -7.7780 c3         1 SNT       0.249800
     14 C9          -3.8030     1.6870    -8.5260 c3         1 SNT       0.138800
     15 C10         -3.1710     3.5000   -10.0030 c3         1 SNT       0.208100
     16 C11         -2.0200     4.0660   -10.7940 ca         1 SNT      -0.081300
     17 C12         -1.2800     5.1160   -10.2830 ca         1 SNT      -0.117500
     18 C13         -0.2250     5.6360   -11.0100 ca         1 SNT      -0.129500
     19 C14          0.0910     5.1040   -12.2460 ca         1 SNT      -0.127000
     20 C15          0.0050     0.0010     2.3980 ca         1 SNT      -0.114500
     21 C16         -0.6910     0.0000     1.2040 ca         1 SNT      -0.135500
     22 C17         -2.2720    -0.4450    -2.6920 cd         1 SNT       0.378600
     23 C18         -3.5180    -0.9720    -3.3580 c3         1 SNT      -0.104400
     24 C19         -1.7750     2.9420    -8.1100 c3         1 SNT       0.138800
     25 C20         -1.1470     1.7730    -7.3440 c3         1 SNT       0.249800
     26 C21         -0.6490     4.0530   -12.7570 ca         1 SNT      -0.129500
     27 C22         -1.7010     3.5320   -12.0290 ca         1 SNT      -0.117500
     28 C23          0.9130     1.4600    -2.5360 c3         1 SNT      -0.031800
     29 H1           1.9310     0.0000    -0.9380 ha         1 SNT       0.148500
     30 H2           3.1620    -0.0000     1.1970 ha         1 SNT       0.136000
     31 H3           1.9300    -0.0000     3.3310 ha         1 SNT       0.133000
     32 H5          -0.4490     1.4140    -5.0720 h4         1 SNT      -0.012200
     33 H6          -2.8310    -0.2330    -8.4860 h1         1 SNT       0.052700
     34 H7          -4.0670    -0.0130    -7.2330 h1         1 SNT       0.052700
     35 H8          -4.3210     2.3350    -7.8290 h1         1 SNT       0.042450
     36 H9          -4.4850     1.3620    -9.3020 h1         1 SNT       0.042450
     37 H10         -3.6100     4.2810    -9.3950 h1         1 SNT       0.040700
     38 H11         -3.9180     3.1080   -10.6830 h1         1 SNT       0.040700
     39 H12         -1.5280     5.5330    -9.3140 ha         1 SNT       0.131000
     40 H13          0.3550     6.4580   -10.6100 ha         1 SNT       0.129000
     41 H14          0.9170     5.5120   -12.8160 ha         1 SNT       0.129000
     42 H15         -0.5340     0.0010     3.3380 ha         1 SNT       0.136000
     43 H16         -1.7750     0.0010     1.2080 ha         1 SNT       0.148500
     44 H17         -4.0640    -1.5960    -2.6600 hc         1 SNT       0.055033
     45 H18         -3.2420    -1.5580    -4.2260 hc         1 SNT       0.055033
     46 H19         -4.1420    -0.1420    -3.6650 hc         1 SNT       0.055033
     47 H20         -0.9940     3.5230    -8.5840 h1         1 SNT       0.042450
     48 H21         -2.3310     3.5670    -7.4220 h1         1 SNT       0.042450
     49 H22         -0.5120     1.2020    -8.0090 h1         1 SNT       0.052700
     50 H23         -0.5650     2.1550    -6.5140 h1         1 SNT       0.052700
     51 H24         -0.4000     3.6350   -13.7250 ha         1 SNT       0.129000
     52 H25         -2.2810     2.7090   -12.4290 ha         1 SNT       0.131000
     53 H26          1.1690     1.9450    -1.6020 hc         1 SNT       0.054033
     54 H27          1.7320     0.8230    -2.8480 hc         1 SNT       0.054033
     55 H28          0.7310     2.2120    -3.2950 hc         1 SNT       0.054033
@<TRIPOS>BOND
     1     3     4 ar
     2     3     2 ar
     3     4    20 ar
     4     2     1 ar
     5    20    21 ar
     6     1    21 ar
     7     1     5 1
     8     5     9 1
     9     5    10 1
    10     9    22 2
    11    10    28 1
    12    10    11 2
    13    22    23 1
    14    22    11 1
    15    11    12 1
    16    12     6 2
    17     6     7 1
    18     7    25 1
    19     7    13 1
    20    25    24 1
    21    13    14 1
    22    24     8 1
    23    14     8 1
    24     8    15 1
    25    15    16 1
    26    16    27 ar
    27    16    17 ar
    28    27    26 ar
    29    17    18 ar
    30    26    19 ar
    31    18    19 ar
    32     2    29 1
    33     3    30 1
    34     4    31 1
    35    12    32 1
    36    13    33 1
    37    13    34 1
    38    14    35 1
    39    14    36 1
    40    15    37 1
    41    15    38 1
    42    17    39 1
    43    18    40 1
    44    19    41 1
    45    20    42 1
    46    21    43 1
    47    23    44 1
    48    23    45 1
    49    23    46 1
    50    24    47 1
    51    24    48 1
    52    25    49 1
    53    25    50 1
    54    26    51 1
    55    27    52 1
    56    28    53 1
    57    28    54 1
    58    28    55 1
@<TRIPOS>SUBSTRUCTURE
     1 SNT         1 TEMP              0 ****  ****    0 ROOT
