@<TRIPOS>MOLECULE
molecule
   22    23     1     0     0
SMALL
bcc


@<TRIPOS>ATOM
      1 CAF          0.0000     0.0000     0.0000 ca         1 SNU      -0.149000
      2 CAD          1.3800     0.0000     0.0000 ca         1 SNU      -0.119000
      3 CAJ          2.0740     0.0000     1.2040 ca         1 SNU       0.147600
      4 NAA          3.4720     0.0010     1.2050 nv         1 SNU      -0.990200
      5 CAE          1.3780     0.0000     2.4060 ca         1 SNU      -0.119000
      6 CAG         -0.0020    -0.0010     2.4040 ca         1 SNU      -0.149000
      7 CAK         -0.6950     0.0000     1.2020 ca         1 SNU       0.012800
      8 NAL         -2.0990     0.0050     1.2000 na         1 SNU       0.030800
      9 CAH         -2.8960     0.0060     2.3090 cc         1 SNU      -0.156300
     10 CAB         -4.1820     0.0130     1.9040 cd         1 SNU      -0.199000
     11 CAC         -4.1810     0.0170     0.4940 cd         1 SNU      -0.199000
     12 CAI         -2.8940     0.0170     0.0910 cc         1 SNU      -0.156300
     13 HAF         -0.5410     0.0000    -0.9380 ha         1 SNU       0.139000
     14 HAD          1.9220    -0.0000    -0.9380 ha         1 SNU       0.141000
     15 HNAA         3.9720     0.8680     1.2050 hn         1 SNU       0.428800
     16 HNAB         3.9730    -0.8650     1.2050 hn         1 SNU       0.428800
     17 HAE          1.9190    -0.0000     3.3450 ha         1 SNU       0.141000
     18 HAG         -0.5440    -0.0010     3.3420 ha         1 SNU       0.139000
     19 HAH         -2.5540     0.0010     3.3370 h4         1 SNU       0.166000
     20 HAB         -5.0560     0.0140     2.5440 ha         1 SNU       0.149000
     21 HAC         -5.0540     0.0240    -0.1480 ha         1 SNU       0.149000
     22 HAI         -2.5500     0.0200    -0.9360 h4         1 SNU       0.166000
@<TRIPOS>BOND
     1     2     1 ar
     2     1     7 ar
     3     1    13 1
     4     2     3 ar
     5     2    14 1
     6     4     3 1
     7     3     5 ar
     8     4    15 1
     9     4    16 1
    10     5     6 ar
    11     5    17 1
    12     7     6 ar
    13     6    18 1
    14     7     8 1
    15    12     8 1
    16     8     9 1
    17    10     9 2
    18     9    19 1
    19    11    10 1
    20    10    20 1
    21    12    11 2
    22    11    21 1
    23    12    22 1
@<TRIPOS>SUBSTRUCTURE
     1 SNU         1 TEMP              0 ****  ****    0 ROOT
