@<TRIPOS>MOLECULE
molecule
   41    41     1     0     0
SMALL
bcc


@<TRIPOS>ATOM
      1 OAB          0.0000     0.0000     0.0000 oh         1 SNW      -0.602800
      2 CAF          1.4280     0.0000     0.0000 c3         1 SNW       0.096100
      3 CAG          1.9400     0.0000     1.4440 c3         1 SNW       0.131100
      4 OAC          1.5280     1.2020     2.0970 oh         1 SNW      -0.597800
      5 CAH          3.4700    -0.0790     1.4320 c3         1 SNW       0.095100
      6 OAI          4.0020     1.0830     0.7950 oh         1 SNW      -0.586800
      7 CAO          3.9030    -1.3290     0.6630 c3         1 SNW       0.118400
      8 OAN          3.3680    -1.2800    -0.6620 os         1 SNW      -0.384600
      9 CAM          1.9400    -1.2520    -0.7160 c3         1 SNW       0.355600
     10 OAQ          1.4170    -2.4150    -0.0710 oh         1 SNW      -0.636800
     11 CAL          1.4860    -1.2300    -2.1760 c3         1 SNW       0.152800
     12 N            1.9780    -2.4330    -2.8620 n7         1 SNW      -0.837200
     13 CA           1.5590    -2.4450    -4.2700 c3         1 SNW       0.047500
     14 C            0.1740    -3.0300    -4.3760 c          1 SNW       0.866600
     15 O           -0.4160    -3.1410    -5.5770 o          1 SNW      -0.819800
     16 CB           2.5360    -3.2950    -5.0840 c3         1 SNW      -0.037400
     17 CG           3.9150    -2.6330    -5.0780 c3         1 SNW      -0.157400
     18 CD           4.8780    -3.4700    -5.8820 c          1 SNW       0.463100
     19 OE1          4.4980    -4.4950    -6.4070 o          1 SNW      -0.400100
     20 NE2          6.1610    -3.0790    -6.0160 nz         1 SNW      -0.688400
     21 OXT         -0.4040    -3.3980    -3.3820 o          1 SNW      -0.819800
     22 H1          -0.3140     0.8630    -0.2150 ho         1 SNW       0.416000
     23 H2           1.7950     0.8820    -0.5120 h1         1 SNW       0.072700
     24 H3           1.5390    -0.8590     1.9690 h1         1 SNW       0.062700
     25 H4           1.1490     0.9910     2.9340 ho         1 SNW       0.402000
     26 H5           3.8350    -0.1390     2.4500 h1         1 SNW       0.035700
     27 H6           4.7420     1.4000     1.2860 ho         1 SNW       0.396000
     28 H7           3.5300    -2.2110     1.1690 h1         1 SNW       0.056200
     29 H8           4.9840    -1.3640     0.6130 h1         1 SNW       0.056200
     30 H9           0.4820    -2.4470    -0.1920 ho         1 SNW       0.449000
     31 H10          1.8830    -0.3480    -2.6640 h1         1 SNW       0.057700
     32 H11          0.4030    -1.2080    -2.2170 h1         1 SNW       0.057700
     33 H12          1.6240    -3.2480    -2.4010 hn         1 SNW       0.390800
     34 H14          1.5530    -1.4320    -4.6540 h1         1 SNW       0.050700
     35 H15          2.6070    -4.2830    -4.6460 hc         1 SNW       0.074700
     36 H16          3.8430    -1.6450    -5.5160 hc         1 SNW       0.096700
     37 H17          6.1910    -2.1740    -6.4400 hn         1 SNW       0.465133
     38 H18          6.5930    -3.0400    -5.1140 hn         1 SNW       0.465133
     39 H13          2.1790    -3.3770    -6.1040 hc         1 SNW       0.074700
     40 H20          4.2720    -2.5510    -4.0590 hc         1 SNW       0.096700
     41 HE23         6.6440    -3.7200    -6.6130 hn         1 SNW       0.465133
@<TRIPOS>BOND
     1     7     5 1
     2     7     8 1
     3     5     3 1
     4     5     6 1
     5     3     4 1
     6     3     2 1
     7    10     9 1
     8     8     9 1
     9    20    18 1
    10     9     2 1
    11     9    11 1
    12     2     1 1
    13    18    17 1
    14    18    19 2
    15    17    16 1
    16    15    14 1
    17    12    11 1
    18    12    13 1
    19    14    13 1
    20    14    21 1
    21    13    16 1
    22     1    22 1
    23     2    23 1
    24     3    24 1
    25     4    25 1
    26     5    26 1
    27     6    27 1
    28     7    28 1
    29     7    29 1
    30    10    30 1
    31    11    31 1
    32    11    32 1
    33    12    33 1
    34    13    34 1
    35    16    35 1
    36    17    36 1
    37    20    37 1
    38    20    38 1
    39    16    39 1
    40    17    40 1
    41    41    20 1
@<TRIPOS>SUBSTRUCTURE
     1 SNW         1 TEMP              0 ****  ****    0 ROOT
