@<TRIPOS>MOLECULE
SNW
   41    41     1     0     0
SMALL
bcc


@<TRIPOS>ATOM
      1 OAB          0.0000     0.0000     0.0000 oh         1 SNW      -0.581800
      2 CAF          1.4280     0.0000     0.0000 c3         1 SNW       0.122100
      3 CAG          1.9400     0.0000     1.4440 c3         1 SNW       0.164100
      4 OAC          1.5280     1.2020     2.0970 oh         1 SNW      -0.578800
      5 CAH          3.4700    -0.0790     1.4320 c3         1 SNW       0.133100
      6 OAI          4.0020     1.0830     0.7950 oh         1 SNW      -0.566800
      7 CAO          3.9030    -1.3290     0.6630 c3         1 SNW       0.189400
      8 OAN          3.3680    -1.2800    -0.6620 os         1 SNW      -0.382600
      9 CAM          1.9400    -1.2520    -0.7160 c3         1 SNW       0.375600
     10 OAQ          1.4170    -2.4150    -0.0710 oh         1 SNW      -0.621800
     11 CAL          1.4860    -1.2300    -2.1760 c3         1 SNW       0.118800
     12 N            1.9780    -2.4330    -2.8620 n7         1 SNW      -0.620200
     13 CA           1.5590    -2.4450    -4.2700 c3         1 SNW       0.000500
     14 C            0.1740    -3.0300    -4.3760 c          1 SNW       0.955600
     15 O           -0.4160    -3.1410    -5.5770 o          1 SNW      -0.867300
     16 CB           2.5360    -3.2950    -5.0840 c3         1 SNW       0.010600
     17 CG           3.9150    -2.6330    -5.0780 c3         1 SNW      -0.097400
     18 CD           4.8780    -3.4700    -5.8820 c          1 SNW       0.298100
     19 OE1          4.4980    -4.4950    -6.4070 o          1 SNW      -0.397100
     20 NE2          6.1610    -3.0790    -6.0160 nz         1 SNW       0.183600
     21 OXT         -0.4040    -3.3980    -3.3820 o          1 SNW      -0.867300
     22 H1          -0.3140     0.8630    -0.2150 ho         1 SNW       0.402000
     23 H2           1.7950     0.8820    -0.5120 h1         1 SNW       0.037700
     24 H3           1.5390    -0.8590     1.9690 h1         1 SNW       0.028700
     25 H4           1.1490     0.9910     2.9340 ho         1 SNW       0.388000
     26 H5           3.8350    -0.1390     2.4500 h1         1 SNW       0.001700
     27 H6           4.7420     1.4000     1.2860 ho         1 SNW       0.382000
     28 H7           3.5300    -2.2110     1.1690 h1         1 SNW       0.016200
     29 H8           4.9840    -1.3640     0.6130 h1         1 SNW       0.016200
     30 H9           0.4820    -2.4470    -0.1920 ho         1 SNW       0.436000
     31 H10          1.8830    -0.3480    -2.6640 h1         1 SNW       0.032200
     32 H11          0.4030    -1.2080    -2.2170 h1         1 SNW       0.032200
     33 H12          1.6240    -3.2480    -2.4010 hn         1 SNW       0.300800
     34 H14          1.5530    -1.4320    -4.6540 h1         1 SNW       0.029700
     35 H15          2.6070    -4.2830    -4.6460 hc         1 SNW       0.043700
     36 H16          3.8430    -1.6450    -5.5160 hc         1 SNW       0.061700
     37 H17          6.1910    -2.1740    -6.4400 hn         1 SNW       0.238800
     38 H18          6.5930    -3.0400    -5.1140 hn         1 SNW       0.238800
     39 H13          2.1790    -3.3770    -6.1040 hc         1 SNW       0.043700
     40 H20          4.2720    -2.5510    -4.0590 hc         1 SNW       0.061700
     41 HE23         6.6440    -3.7200    -6.6130 hn         1 SNW       0.238800
@<TRIPOS>BOND
     1     1     2 1   
     2     1    22 1   
     3     2     3 1   
     4     2     9 1   
     5     2    23 1   
     6     3     4 1   
     7     3     5 1   
     8     3    24 1   
     9     4    25 1   
    10     5     6 1   
    11     5     7 1   
    12     5    26 1   
    13     6    27 1   
    14     7     8 1   
    15     7    28 1   
    16     7    29 1   
    17     8     9 1   
    18     9    10 1   
    19     9    11 1   
    20    10    30 1   
    21    11    12 1   
    22    11    31 1   
    23    11    32 1   
    24    12    13 1   
    25    12    33 1   
    26    13    14 1   
    27    13    16 1   
    28    13    34 1   
    29    14    15 1   
    30    14    21 1   
    31    16    17 1   
    32    16    35 1   
    33    16    39 1   
    34    17    18 1   
    35    17    36 1   
    36    17    40 1   
    37    18    19 2   
    38    18    20 1   
    39    20    37 1   
    40    20    38 1   
    41    20    41 1   
@<TRIPOS>SUBSTRUCTURE
     1 SNW         1 TEMP              0 ****  ****    0 ROOT
