@<TRIPOS>MOLECULE
SNX
   52    55     1     0     0
SMALL
bcc


@<TRIPOS>ATOM
      1 O23          0.0000     0.0000     0.0000 o          1 SNX      -0.515100
      2 C21          1.2160     0.0000     0.0000 c          1 SNX       0.357700
      3 N22          1.8910     0.0000     1.1670 nz         1 SNX       0.211600
      4 C18          1.9510    -0.0070    -1.2750 ca         1 SNX      -0.329600
      5 C17          3.3450     0.1180    -1.2830 ca         1 SNX      -0.035000
      6 C16          4.0290     0.1100    -2.4770 ca         1 SNX      -0.130000
      7 C19          1.2580    -0.1450    -2.4900 ca         1 SNX       0.161600
      8 N24         -0.1250    -0.2740    -2.4910 nu         1 SNX      -0.332600
      9 C25         -0.8350    -0.5380    -3.7460 c3         1 SNX       0.132800
     10 C26         -2.3360    -0.6350    -3.4720 c3         1 SNX       0.203400
     11 O27         -2.8220     0.6320    -3.0230 os         1 SNX      -0.430600
     12 C28         -4.2220     0.6500    -2.7380 c3         1 SNX       0.259700
     13 C20          1.9590    -0.1500    -3.6860 ca         1 SNX      -0.186000
     14 C15          3.3410    -0.0190    -3.6810 ca         1 SNX      -0.037200
     15 N7           4.0440    -0.0240    -4.8870 na         1 SNX       0.519500
     16 C1           4.1210    -1.1030    -5.7530 ca         1 SNX      -0.252200
     17 C6           3.5820    -2.3840    -5.7130 ca         1 SNX      -0.110000
     18 C5           3.8310    -3.2700    -6.7400 ca         1 SNX      -0.077000
     19 C4           4.6190    -2.8950    -7.8180 ca         1 SNX      -0.103000
     20 C3           5.1630    -1.6300    -7.8740 ca         1 SNX      -0.034000
     21 C8           4.7390     1.0220    -5.3750 cc         1 SNX      -0.217300
     22 C13          4.9160     2.4020    -4.7840 c3         1 SNX       0.063800
     23 C12          5.1760     3.3810    -5.9360 c3         1 SNX      -0.013400
     24 C11          6.3780     2.9250    -6.7640 c3         1 SNX      -0.116400
     25 C10          6.1200     1.5500    -7.3390 c          1 SNX       0.652300
     26 O14          6.5860     1.2180    -8.4100 o          1 SNX      -0.554100
     27 C9           5.3160     0.6620    -6.5830 cd         1 SNX      -0.219400
     28 C2           4.9200    -0.7240    -6.8460 ca         1 SNX      -0.024800
     29 HN22         2.5100    -0.7860     1.1940 hn         1 SNX       0.242133
     30 HN2A         1.2430    -0.0590     1.9270 hn         1 SNX       0.242133
     31 H17          3.8850     0.2190    -0.3500 ha         1 SNX       0.081000
     32 H16          5.1080     0.2090    -2.4800 ha         1 SNX       0.138000
     33 HN24        -0.6380    -0.1690    -1.6390 hn         1 SNX       0.351800
     34 H25         -0.6460     0.2690    -4.4440 h1         1 SNX       0.040700
     35 H25A        -0.4840    -1.4710    -4.1700 h1         1 SNX       0.040700
     36 H26         -2.8520    -0.9170    -4.3820 h1         1 SNX       0.009200
     37 H26A        -2.5170    -1.3820    -2.7090 h1         1 SNX       0.009200
     38 H28         -4.4470    -0.0950    -1.9850 h1         1 SNX      -0.003967
     39 H28A        -4.7770     0.4310    -3.6410 h1         1 SNX      -0.003967
     40 H28B        -4.5020     1.6300    -2.3710 h1         1 SNX      -0.003967
     41 H20          1.4290    -0.2530    -4.6240 ha         1 SNX       0.153000
     42 H6           2.9650    -2.6860    -4.8750 ha         1 SNX       0.093000
     43 H5           3.4080    -4.2660    -6.7040 ha         1 SNX       0.107000
     44 H4           4.8080    -3.6000    -8.6180 ha         1 SNX       0.114000
     45 H3           5.7780    -1.3420    -8.7180 ha         1 SNX       0.132000
     46 H13          5.7610     2.4030    -4.1060 hc         1 SNX       0.018200
     47 H13A         4.0150     2.6910    -4.2570 hc         1 SNX       0.018200
     48 H12          4.3000     3.4230    -6.5720 hc         1 SNX       0.024200
     49 H12A         5.3760     4.3640    -5.5280 hc         1 SNX       0.024200
     50 H11          7.2560     2.8900    -6.1310 hc         1 SNX       0.042700
     51 H11A         6.5410     3.6270    -7.5740 hc         1 SNX       0.042700
     52 H223         2.4180     0.8470     1.2470 hn         1 SNX       0.242133
@<TRIPOS>BOND
     1     1     2 2   
     2     2     3 1   
     3     2     4 1   
     4     3    29 1   
     5     3    30 1   
     6     3    52 1   
     7     4     5 ar  
     8     4     7 ar  
     9     5     6 ar  
    10     5    31 1   
    11     6    14 ar  
    12     6    32 1   
    13     7     8 1   
    14     7    13 ar  
    15     8     9 1   
    16     8    33 1   
    17     9    10 1   
    18     9    34 1   
    19     9    35 1   
    20    10    11 1   
    21    10    36 1   
    22    10    37 1   
    23    11    12 1   
    24    12    38 1   
    25    12    39 1   
    26    12    40 1   
    27    13    14 ar  
    28    13    41 1   
    29    14    15 1   
    30    15    16 1   
    31    15    21 1   
    32    16    17 ar  
    33    16    28 ar  
    34    17    18 ar  
    35    17    42 1   
    36    18    19 ar  
    37    18    43 1   
    38    19    20 ar  
    39    19    44 1   
    40    20    28 ar  
    41    20    45 1   
    42    21    22 1   
    43    21    27 2   
    44    22    23 1   
    45    22    46 1   
    46    22    47 1   
    47    23    24 1   
    48    23    48 1   
    49    23    49 1   
    50    24    25 1   
    51    24    50 1   
    52    24    51 1   
    53    25    26 2   
    54    25    27 1   
    55    27    28 1   
@<TRIPOS>SUBSTRUCTURE
     1 SNX         1 TEMP              0 ****  ****    0 ROOT
