@<TRIPOS>MOLECULE
molecule
   27    27     1     0     0
SMALL
bcc


@<TRIPOS>ATOM
      1 C1           0.0000     0.0000     0.0000 ca         1 SNY      -0.018800
      2 C2           1.4010     0.0000     0.0000 ca         1 SNY      -0.226500
      3 C3           2.0900     0.0000     1.1970 ca         1 SNY       0.148600
      4 O3           3.4500     0.0010     1.1980 os         1 SNY      -0.311400
      5 C4           1.3930    -0.0020     2.4030 ca         1 SNY       0.059100
      6 O4           2.0740    -0.0030     3.5800 oh         1 SNY      -0.490100
      7 C5          -0.0010    -0.0030     2.4070 ca         1 SNY       0.148600
      8 O5          -0.6760    -0.0050     3.5870 os         1 SNY      -0.311400
      9 C6          -0.6970     0.0040     1.2140 ca         1 SNY      -0.226500
     10 C7          -0.7360     0.0010    -1.2710 ce         1 SNY      -0.034200
     11 C8          -2.0920    -0.0000    -1.2690 cf         1 SNY      -0.275200
     12 C9          -2.7970     0.0010    -2.4870 c          1 SNY       0.564100
     13 O9          -4.0110     0.0000    -2.4850 o          1 SNY      -0.525100
     14 C3M          4.0990     0.0030    -0.0740 c3         1 SNY       0.126200
     15 C5M         -2.1030    -0.0050     3.5190 c3         1 SNY       0.126200
     16 H2           1.9430    -0.0030    -0.9380 ha         1 SNY       0.145000
     17 HO4          2.2320    -0.8920     3.8500 ho         1 SNY       0.416000
     18 H6          -1.7800     0.0040     1.2180 ha         1 SNY       0.145000
     19 H7          -0.1950     0.0020    -2.2100 ha         1 SNY       0.134000
     20 H8          -2.6320    -0.0010    -0.3300 ha         1 SNY       0.152000
     21 H9          -2.2560     0.0020    -3.4250 h4         1 SNY      -0.010800
     22 H3M          5.1730     0.0050     0.0680 h1         1 SNY       0.044367
     23 H3MA         3.8100    -0.8820    -0.6290 h1         1 SNY       0.044367
     24 H3MB         3.8070     0.8870    -0.6280 h1         1 SNY       0.044367
     25 H5M         -2.4400     0.8810     2.9940 h1         1 SNY       0.044367
     26 H5MA        -2.4390    -0.8880     2.9880 h1         1 SNY       0.044367
     27 H5MB        -2.5130    -0.0090     4.5210 h1         1 SNY       0.044367
@<TRIPOS>BOND
     1     2     1 ar
     2     9     1 ar
     3     1    10 1
     4     3     2 ar
     5     2    16 1
     6     4     3 1
     7     5     3 ar
     8     4    14 1
     9     6     5 1
    10     5     7 ar
    11     6    17 1
    12     8     7 1
    13     7     9 ar
    14     8    15 1
    15     9    18 1
    16    10    11 2
    17    10    19 1
    18    11    12 1
    19    11    20 1
    20    12    13 2
    21    12    21 1
    22    14    22 1
    23    14    23 1
    24    14    24 1
    25    15    25 1
    26    15    26 1
    27    15    27 1
@<TRIPOS>SUBSTRUCTURE
     1 SNY         1 TEMP              0 ****  ****    0 ROOT
