@<TRIPOS>MOLECULE
SNY
   27    27     1     0     0
SMALL
bcc


@<TRIPOS>ATOM
      1 C1         -0.0530   -0.5490   -0.1370 ca        1 SNY     -0.055800
      2 C2          1.3440   -0.4280   -0.1610 ca        1 SNY     -0.182000
      3 C3          2.0310    0.0270    0.9660 ca        1 SNY      0.093100
      4 O3          3.3990    0.1900    1.0420 os        1 SNY     -0.322400
      5 C4          1.3220    0.3550    2.1470 ca        1 SNY      0.097100
      6 O4          2.0460    0.7980    3.2230 oh        1 SNY     -0.469100
      7 C5         -0.0810    0.2140    2.1570 ca        1 SNY      0.093100
      8 O5         -0.6810    0.5660    3.3550 os        1 SNY     -0.322400
      9 C6         -0.7660   -0.2330    1.0250 ca        1 SNY     -0.182000
     10 C7         -0.7340   -1.0370   -1.3270 ce        1 SNY     -0.042200
     11 C8         -1.8900   -0.5800   -1.8280 cf        1 SNY     -0.263200
     12 C9         -2.6500    0.5510   -1.2810 c         1 SNY      0.555100
     13 O9         -3.8540    0.7130   -1.4950 o         1 SNY     -0.527100
     14 C3M         4.1300   -0.1190   -0.1390 c3        1 SNY      0.115200
     15 C5M        -2.0750    0.2930    3.4600 c3        1 SNY      0.115200
     16 H2          1.8910   -0.6890   -1.0790 ha        1 SNY      0.145500
     17 HO4         1.4280    0.9430    3.9580 ho        1 SNY      0.435000
     18 H6         -1.8590   -0.3540    1.0450 ha        1 SNY      0.145500
     19 H7         -0.2130   -1.8680   -1.8400 ha        1 SNY      0.134000
     20 H8         -2.3330   -1.0500   -2.7230 ha        1 SNY      0.150000
     21 H9         -2.0680    1.2760   -0.6650 h4        1 SNY      0.005200
     22 H3M         3.8150    0.5380   -0.9850 h1        1 SNY      0.047867
     23 H3MA        5.1900    0.0950    0.1540 h1        1 SNY      0.047867
     24 H3MB        4.0070   -1.1960   -0.4110 h1        1 SNY      0.047867
     25 H5M        -2.2800   -0.7910    3.2910 h1        1 SNY      0.047867
     26 H5MA       -2.3150    0.5840    4.5140 h1        1 SNY      0.047867
     27 H5MB       -2.6500    0.9210    2.7360 h1        1 SNY      0.047867
@<TRIPOS>BOND
     1    1    2 ar  
     2    1    9 ar  
     3    1   10 1   
     4    2    3 ar  
     5    2   16 1   
     6    3    4 1   
     7    3    5 ar  
     8    4   14 1   
     9    5    6 1   
    10    5    7 ar  
    11    6   17 1   
    12    7    8 1   
    13    7    9 ar  
    14    8   15 1   
    15    9   18 1   
    16   10   11 2   
    17   10   19 1   
    18   11   12 1   
    19   11   20 1   
    20   12   13 2   
    21   12   21 1   
    22   14   22 1   
    23   14   23 1   
    24   14   24 1   
    25   15   25 1   
    26   15   26 1   
    27   15   27 1   
@<TRIPOS>SUBSTRUCTURE
     1 SNY         1 TEMP              0 ****  ****    0 ROOT
