@<TRIPOS>MOLECULE
molecule
    3     2     1     0     0
SMALL
bcc


@<TRIPOS>ATOM
      1 S           -0.4840     0.0000     0.0000 ss         1 SO2       1.005000
      2 O1           0.4850     0.0000    -1.1560 o          1 SO2      -0.502000
      3 O2           0.4850     0.0000     1.1560 o          1 SO2      -0.502000
@<TRIPOS>BOND
     1     1     2 1
     2     1     3 1
@<TRIPOS>SUBSTRUCTURE
     1 SO2         1 TEMP              0 ****  ****    0 ROOT
