@<TRIPOS>MOLECULE
SO2
    3     2     1     0     0
SMALL
bcc


@<TRIPOS>ATOM
      1 S          -0.3990    0.0000   -0.0000 ss        1 SO2      1.162000
      2 O1          0.4430    0.0000   -1.1560 o         1 SO2     -0.581000
      3 O2          0.4420   -0.0000    1.1560 o         1 SO2     -0.581000
@<TRIPOS>BOND
     1    1    2 1   
     2    1    3 1   
@<TRIPOS>SUBSTRUCTURE
     1 SO2         1 TEMP              0 ****  ****    0 ROOT
