@<TRIPOS>MOLECULE
SO3
    4     3     1     0     0
SMALL
bcc


@<TRIPOS>ATOM
      1 S           0.0270   -0.0310    0.3470 s4        1 SO3      0.168000
      2 O1         -0.0720   -1.4560   -0.3500 o         1 SO3     -0.682400
      3 O2          1.2930    0.6930   -0.2860 o         1 SO3     -0.682400
      4 O3         -1.2470    0.7930   -0.1290 o         1 SO3     -0.802200
@<TRIPOS>BOND
     1    1    2 1   
     2    1    3 1   
     3    1    4 2   
@<TRIPOS>SUBSTRUCTURE
     1 SO3         1 TEMP              0 ****  ****    0 ROOT
