@<TRIPOS>MOLECULE
molecule
    4     3     1     0     0
SMALL
bcc


@<TRIPOS>ATOM
      1 S            0.0000     0.0000     0.4160 s4         1 SO3       0.376000
      2 O1          -0.0990    -1.3130    -0.2780 o          1 SO3      -0.752400
      3 O2           1.1870     0.5700    -0.2780 o          1 SO3      -0.752400
      4 O3          -1.0870     0.7420    -0.2780 o          1 SO3      -0.872200
@<TRIPOS>BOND
     1     1     2 1
     2     1     3 1
     3     1     4 2
@<TRIPOS>SUBSTRUCTURE
     1 SO3         1 TEMP              0 ****  ****    0 ROOT
