@<TRIPOS>MOLECULE
SO8
   53    56     1     0     0
SMALL
bcc


@<TRIPOS>ATOM
      1 C            0.0000     0.0000     0.0000 c3         1 SO8       0.271000
      2 N            1.9970     1.2010    -0.6920 nz         1 SO8       0.861000
      3 O           -0.6070     1.0340    -0.1810 o          1 SO8      -0.432000
      4 N1          -0.2820    -4.2460    -4.2980 n2         1 SO8      -0.129000
      5 C2           0.2040    -4.1110    -3.0780 c2         1 SO8      -0.026000
      6 N3          -0.5240    -3.6710    -2.0730 n2         1 SO8      -0.116000
      7 C4          -1.7990    -3.3420    -2.2520 c2         1 SO8      -0.166000
      8 C5          -2.3630    -3.4680    -3.5330 c2         1 SO8      -0.188000
      9 C6          -1.5460    -3.9400    -4.5740 c2         1 SO8       0.094000
     10 N6          -2.0460    -4.0850    -5.8570 nv         1 SO8      -0.041000
     11 N7          -3.6560    -3.0730    -3.4410 n2         1 SO8      -0.041000
     12 C8          -3.9140    -2.7210    -2.2160 c2         1 SO8      -0.179000
     13 N9          -2.8010    -2.8690    -1.4430 na         1 SO8       0.265000
     14 CA           1.5060     0.0000     0.0000 c3         1 SO8      -0.334000
     15 CB           2.0170     0.0000     1.4420 c3         1 SO8      -0.078000
     16 NAI         -0.6740    -1.1480     0.2080 n7         1 SO8      -0.004000
     17 CAJ         -2.1390    -1.1470     0.2140 c3         1 SO8      -0.186000
     18 CAK         -2.6850    -0.8060     1.6220 c3         1 SO8      -0.055000
     19 OAL         -1.6870    -1.0450     2.6170 oh         1 SO8      -0.270000
     20 CAM         -3.8740    -1.7690     1.8090 c3         1 SO8       0.046000
     21 CAN         -5.1550    -0.9700     2.0600 c3         1 SO8       0.068000
     22 OAO         -6.2280    -1.8690     2.3470 oh         1 SO8      -0.286000
     23 OAP         -4.0020    -2.5310     0.5980 os         1 SO8      -0.222000
     24 CAQ         -2.6940    -2.5770    -0.0110 c3         1 SO8       0.091000
     25 CG1          3.5470     0.0000     1.4420 c3         1 SO8      -0.116000
     26 CG2          1.5080    -1.2510     2.1630 c3         1 SO8      -0.153000
     27 HN           1.4250     1.3810    -1.4930 hn         1 SO8       0.029333
     28 HNA          2.9430     1.0550    -0.9830 hn         1 SO8       0.029333
     29 HN6         -2.4690    -4.9480    -6.1350 hn         1 SO8       0.085000
     30 HN6A        -1.9590    -3.3360    -6.5160 hn         1 SO8       0.085000
     31 H8          -4.8730    -2.3630    -1.8610 h5         1 SO8       0.177000
     32 HA           1.8670    -0.8840    -0.5110 hx         1 SO8       0.162000
     33 HB           1.5390     0.9340     1.7120 hc         1 SO8       0.070000
     34 HNAI        -0.2830    -0.6030     0.9510 DU         1 SO8       0.118000
     35 HAJ         -2.5340    -0.4620    -0.5260 h1         1 SO8       0.121000
     36 HAK         -2.9530     0.0850     1.0680 h1         1 SO8       0.131000
     37 HOAL        -1.9670    -0.1460     2.6640 ho         1 SO8       0.226000
     38 HAM         -3.6800    -2.4340     2.6420 h1         1 SO8       0.100000
     39 HAN         -5.1690    -0.5230     1.0730 h1         1 SO8       0.037000
     40 HANA        -5.0190    -0.2290     2.8380 h1         1 SO8       0.037000
     41 HOAO        -7.0220    -1.3780     2.4810 ho         1 SO8       0.203000
     42 HAQ         -2.0700    -3.3080     0.4880 h2         1 SO8       0.109000
     43 HD1          3.4140    -0.7440     2.9370 hc         1 SO8       0.078333
     44 HD1A         5.1120    -0.0930     2.9970 hc         1 SO8       0.078333
     45 HD1B         3.6830     0.9920     3.4100 hc         1 SO8       0.078333
     46 HG1          3.9080    -0.9250     1.0100 hc         1 SO8       0.047500
     47 HG1A         3.9070     0.8370     0.8560 hc         1 SO8       0.047500
     48 HG2          1.4780    -2.0810     1.4680 hc         1 SO8       0.088333
     49 HG2A         0.5130    -1.0660     2.5480 hc         1 SO8       0.088333
     50 HG2B         2.1740    -1.4910     2.9830 hc         1 SO8       0.088333
     51 CD1          4.0580     0.1250     2.8790 c3         1 SO8      -0.147000
     52 HN3          1.9560     1.9840    -0.0700 hn         1 SO8       0.029333
     53 H2           1.2510    -4.3400    -2.9250 h5         1 SO8       0.133000
@<TRIPOS>BOND
     1     1     3 1   
     2     1    14 1   
     3     1    16 1   
     4     1    34 1   
     5     2    14 1   
     6     2    27 1   
     7     2    28 1   
     8     2    52 1   
     9     4     5 1   
    10     4     9 1   
    11     5     6 1   
    12     5    53 1   
    13     6     7 1   
    14     7     8 1   
    15     7    13 1   
    16     8     9 1   
    17     8    11 1   
    18     9    10 1   
    19    10    29 1   
    20    10    30 1   
    21    11    12 1   
    22    12    13 1   
    23    12    31 1   
    24    13    24 1   
    25    14    15 1   
    26    14    32 1   
    27    15    25 1   
    28    15    26 1   
    29    15    33 1   
    30    16    17 1   
    31    16    34 1   
    32    17    18 1   
    33    17    24 1   
    34    17    35 1   
    35    18    19 1   
    36    18    20 1   
    37    18    36 1   
    38    19    37 1   
    39    20    21 1   
    40    20    23 1   
    41    20    38 1   
    42    21    22 1   
    43    21    39 1   
    44    21    40 1   
    45    22    41 1   
    46    23    24 1   
    47    24    42 1   
    48    25    46 1   
    49    25    47 1   
    50    25    51 1   
    51    26    48 1   
    52    26    49 1   
    53    26    50 1   
    54    43    51 1   
    55    44    51 1   
    56    45    51 1   
@<TRIPOS>SUBSTRUCTURE
     1 SO8         1 TEMP              0 ****  ****    0 ROOT
