@<TRIPOS>MOLECULE
molecule
   53    55     1     0     0
SMALL
bcc


@<TRIPOS>ATOM
      1 C            0.0000     0.0000     0.0000 c          1 SO8       0.589100
      2 N            1.9970     1.2010    -0.6920 nz         1 SO8      -0.797600
      3 O           -0.6070     1.0340    -0.1810 o          1 SO8      -0.628100
      4 N1          -0.2820    -4.2460    -4.2980 nb         1 SO8      -0.766000
      5 C2           0.2040    -4.1110    -3.0780 ca         1 SO8       0.697900
      6 N3          -0.5240    -3.6710    -2.0730 nb         1 SO8      -0.771000
      7 C4          -1.7990    -3.3420    -2.2520 ca         1 SO8       0.439800
      8 C5          -2.3630    -3.4680    -3.5330 ca         1 SO8      -0.151200
      9 C6          -1.5460    -3.9400    -4.5740 ca         1 SO8       0.788200
     10 N6          -2.0460    -4.0850    -5.8570 nv         1 SO8      -1.071500
     11 N7          -3.6560    -3.0730    -3.4410 nc         1 SO8      -0.560100
     12 C8          -3.9140    -2.7210    -2.2160 cd         1 SO8       0.448700
     13 N9          -2.8010    -2.8690    -1.4430 na         1 SO8      -0.267000
     14 CA           1.5060     0.0000     0.0000 c3         1 SO8       0.010500
     15 CB           2.0170     0.0000     1.4420 c3         1 SO8      -0.084700
     16 NAI         -0.6740    -1.1480     0.2080 ns         1 SO8      -0.358900
     17 CAJ         -2.1390    -1.1470     0.2140 c3         1 SO8      -0.073300
     18 CAK         -2.6850    -0.8060     1.6220 c3         1 SO8       0.006100
     19 OAL         -1.6870    -1.0450     2.6170 oh         1 SO8      -0.537800
     20 CAM         -3.8740    -1.7690     1.8090 c3         1 SO8       0.130100
     21 CAN         -5.1550    -0.9700     2.0600 c3         1 SO8       0.141400
     22 OAO         -6.2280    -1.8690     2.3470 oh         1 SO8      -0.574800
     23 OAP         -4.0020    -2.5310     0.5980 os         1 SO8      -0.381600
     24 CAQ         -2.6940    -2.5770    -0.0110 c3         1 SO8       0.284800
     25 CG1          3.5470     0.0000     1.4420 c3         1 SO8      -0.096400
     26 CG2          1.5080    -1.2510     2.1630 c3         1 SO8      -0.111100
     27 HN           1.4250     1.3810    -1.4930 hn         1 SO8       0.464800
     28 HNA          2.9430     1.0550    -0.9830 hn         1 SO8       0.464800
     29 HN6         -2.4690    -4.9480    -6.1350 hn         1 SO8       0.451800
     30 HN6A        -1.9590    -3.3360    -6.5160 hn         1 SO8       0.451800
     31 H8          -4.8730    -2.3630    -1.8610 h5         1 SO8       0.097800
     32 HA           1.8670    -0.8840    -0.5110 hx         1 SO8       0.148700
     33 HB           1.5390     0.9340     1.7120 hc         1 SO8       0.055700
     34 HNAI        -0.2830    -0.6030     0.9510 hn         1 SO8       0.268500
     35 HAJ         -2.5340    -0.4620    -0.5260 h1         1 SO8       0.105700
     36 HAK         -2.9530     0.0850     1.0680 h1         1 SO8       0.120700
     37 HOAL        -1.9670    -0.1460     2.6640 ho         1 SO8       0.425000
     38 HAM         -3.6800    -2.4340     2.6420 h1         1 SO8       0.099700
     39 HAN         -5.1690    -0.5230     1.0730 h1         1 SO8       0.036700
     40 HANA        -5.0190    -0.2290     2.8380 h1         1 SO8       0.036700
     41 HOAO        -7.0220    -1.3780     2.4810 ho         1 SO8       0.419000
     42 HAQ         -2.0700    -3.3080     0.4880 h2         1 SO8       0.113700
     43 HD1          3.4140    -0.7440     2.9370 hc         1 SO8       0.069033
     44 HD1A         5.1120    -0.0930     2.9970 hc         1 SO8       0.069033
     45 HD1B         3.6830     0.9920     3.4100 hc         1 SO8       0.069033
     46 HG1          3.9080    -0.9250     1.0100 hc         1 SO8       0.036700
     47 HG1A         3.9070     0.8370     0.8560 hc         1 SO8       0.036700
     48 HG2          1.4780    -2.0810     1.4680 hc         1 SO8       0.079367
     49 HG2A         0.5130    -1.0660     2.5480 hc         1 SO8       0.079367
     50 HG2B         2.1740    -1.4910     2.9830 hc         1 SO8       0.079367
     51 CD1          4.0580     0.1250     2.8790 c3         1 SO8      -0.110100
     52 HN3          1.9560     1.9840    -0.0700 hn         1 SO8       0.464800
     53 H2           1.2510    -4.3400    -2.9250 h5         1 SO8       0.059100
@<TRIPOS>BOND
     1     1     3 2
     2     1    14 1
     3     1    16 1
     4     2    14 1
     5     4     5 ar
     6     4     9 ar
     7     5     6 ar
     8     6     7 ar
     9     7     8 ar
    10     7    13 1
    11     8     9 ar
    12     8    11 1
    13     9    10 1
    14    11    12 2
    15    12    13 1
    16    13    24 1
    17    14    15 1
    18    15    25 1
    19    15    26 1
    20    16    17 1
    21    17    18 1
    22    17    24 1
    23    18    19 1
    24    18    20 1
    25    20    21 1
    26    20    23 1
    27    21    22 1
    28    23    24 1
    29    51    25 1
    30     2    27 1
    31     2    28 1
    32     5    53 1
    33    10    29 1
    34    10    30 1
    35    12    31 1
    36    14    32 1
    37    15    33 1
    38    16    34 1
    39    17    35 1
    40    18    36 1
    41    19    37 1
    42    20    38 1
    43    21    39 1
    44    21    40 1
    45    22    41 1
    46    24    42 1
    47    51    43 1
    48    51    44 1
    49    51    45 1
    50    25    46 1
    51    25    47 1
    52    26    48 1
    53    26    49 1
    54    26    50 1
    55    52     2 1
@<TRIPOS>SUBSTRUCTURE
     1 SO8         1 TEMP              0 ****  ****    0 ROOT
