@<TRIPOS>MOLECULE
molecule
   18    18     1     0     0
SMALL
bcc


@<TRIPOS>ATOM
      1 C4           0.0000     0.0000     0.0000 ca         1 SOA      -0.101300
      2 C3           1.3880     0.0000     0.0000 ca         1 SOA       0.162600
      3 C2           2.0780     0.0000     1.2060 ca         1 SOA      -0.146000
      4 C1           1.3840    -0.0060     2.3980 ca         1 SOA      -0.125000
      5 C5          -0.6900    -0.0110     1.1950 ca         1 SOA      -0.098000
      6 C6           0.0000    -0.0110     2.3930 ca         1 SOA      -0.139000
      7 N11          2.0890     0.0060    -1.2080 nv         1 SOA      -0.992200
      8 C12         -0.7530     0.0000    -1.3060 c3         1 SOA       0.196700
      9 O1          -2.1570    -0.0110    -1.0450 oh         1 SOA      -0.615800
     10 H2           3.1620     0.0020     1.2100 ha         1 SOA       0.133000
     11 H1           1.9220    -0.0060     3.3380 ha         1 SOA       0.127000
     12 H5          -1.7730    -0.0130     1.1950 ha         1 SOA       0.152000
     13 H6          -0.5430    -0.0180     3.3300 ha         1 SOA       0.129000
     14 HNB1         2.3630    -0.8580    -1.6320 hn         1 SOA       0.425800
     15 HNB2         2.3570     0.8750    -1.6260 hn         1 SOA       0.425800
     16 H121        -0.4970     0.8890    -1.8700 h1         1 SOA       0.031700
     17 H122        -0.4850    -0.8800    -1.8770 h1         1 SOA       0.031700
     18 HO1         -2.6280    -0.0100    -1.8620 ho         1 SOA       0.403000
@<TRIPOS>BOND
     1     1     2 ar
     2     1     5 ar
     3     1     8 1
     4     2     3 ar
     5     2     7 1
     6     3     4 ar
     7     3    10 1
     8     4     6 ar
     9     4    11 1
    10     5     6 ar
    11     5    12 1
    12     6    13 1
    13     7    14 1
    14     7    15 1
    15     8     9 1
    16     8    16 1
    17     8    17 1
    18     9    18 1
@<TRIPOS>SUBSTRUCTURE
     1 SOA         1 TEMP              0 ****  ****    0 ROOT
