@<TRIPOS>MOLECULE
molecule
   63    66     1     0     0
SMALL
bcc


@<TRIPOS>ATOM
      1 O01          0.0000     0.0000     0.0000 os         1 SOF      -0.294900
      2 C02          1.4290     0.0000     0.0000 c3         1 SOF       0.065400
      3 C03          1.9310     0.0000     1.4210 c          1 SOF       0.662100
      4 O04          1.1430     0.0000     2.3430 o          1 SOF      -0.574100
      5 N05          3.2560    -0.0010     1.6670 n          1 SOF      -0.495800
      6 C06          3.7610    -0.0000     3.0470 c3         1 SOF       0.106500
      7 C07          4.7400     1.1670     3.2140 c3         1 SOF      -0.118900
      8 C08          5.8310     1.0700     2.1450 c3         1 SOF       0.172500
      9 N09          6.7890     2.1690     2.3230 n3         1 SOF      -0.715600
     10 C10          7.9160     2.0400     1.3900 c3         1 SOF       0.114300
     11 C11          8.9290     3.1550     1.6600 c3         1 SOF       0.162800
     12 N12          8.2690     4.4600     1.5080 n3         1 SOF      -0.719600
     13 C13          7.1420     4.5880     2.4420 c3         1 SOF       0.162800
     14 C14          6.1290     3.4730     2.1720 c3         1 SOF       0.114300
     15 C15          7.8310     4.6700     0.1220 c3         1 SOF       0.149800
     16 C16          7.3790     6.1210    -0.0560 c3         1 SOF      -0.094100
     17 C17          5.1960     1.1660     0.7560 c3         1 SOF      -0.118900
     18 C18          4.2240    -0.0060     0.5610 c3         1 SOF       0.106500
     19 C19         -0.6160     0.0010    -1.2110 ca         1 SOF       0.143100
     20 C20         -2.0040     0.0010    -1.2810 ca         1 SOF      -0.188000
     21 C21         -2.6320     0.0010    -2.5080 ca         1 SOF      -0.081500
     22 C22         -1.8740     0.0010    -3.6790 cp         1 SOF      -0.073000
     23 C23         -0.4830     0.0010    -3.6040 ca         1 SOF      -0.081500
     24 C24          0.1400     0.0060    -2.3740 ca         1 SOF      -0.188000
     25 C25         -2.5480     0.0020    -5.0010 cp         1 SOF      -0.026000
     26 C26         -1.7910     0.0020    -6.1700 ca         1 SOF      -0.124000
     27 C27         -2.4230     0.0020    -7.3980 ca         1 SOF      -0.124500
     28 C28         -3.8050     0.0020    -7.4670 ca         1 SOF      -0.130000
     29 C29         -4.5610     0.0010    -6.3080 ca         1 SOF      -0.124500
     30 C30         -3.9400    -0.0040    -5.0770 ca         1 SOF      -0.124000
     31 H021         1.7900     0.8850    -0.5110 h1         1 SOF       0.053200
     32 H022         1.7900    -0.8850    -0.5110 h1         1 SOF       0.053200
     33 H061         2.9330     0.1200     3.7360 h1         1 SOF       0.057200
     34 H062         4.2730    -0.9340     3.2460 h1         1 SOF       0.057200
     35 H181         3.7000     0.1090    -0.3800 h1         1 SOF       0.057200
     36 H182         4.7750    -0.9390     0.5650 h1         1 SOF       0.057200
     37 H071         5.1930     1.1190     4.1970 hc         1 SOF       0.058700
     38 H072         4.2060     2.1030     3.1010 hc         1 SOF       0.058700
     39 H08          6.3430     0.1200     2.2400 h1         1 SOF       0.065700
     40 H171         5.9720     1.1210     0.0010 hc         1 SOF       0.058700
     41 H172         4.6550     2.1010     0.6710 hc         1 SOF       0.058700
     42 H101         7.5530     2.1230     0.3720 h1         1 SOF       0.039950
     43 H102         8.3940     1.0780     1.5310 h1         1 SOF       0.039950
     44 H141         5.3130     3.5480     2.8800 h1         1 SOF       0.039950
     45 H142         5.7490     3.5690     1.1620 h1         1 SOF       0.039950
     46 H111         9.7450     3.0800     0.9510 h1         1 SOF       0.062950
     47 H112         9.3100     3.0600     2.6690 h1         1 SOF       0.062950
     48 H131         6.6640     5.5500     2.3020 h1         1 SOF       0.062950
     49 H132         7.5060     4.5040     3.4590 h1         1 SOF       0.062950
     50 HA1          7.0060     4.0050    -0.1010 h1         1 SOF       0.032700
     51 HB2          8.6540     4.4640    -0.5520 h1         1 SOF       0.032700
     52 H161         7.5580     6.4330    -1.0770 hc         1 SOF       0.040033
     53 H162         7.9370     6.7590     0.6200 hc         1 SOF       0.040033
     54 H163         6.3210     6.1990     0.1650 hc         1 SOF       0.040033
     55 H20         -2.5920     0.0000    -0.3720 ha         1 SOF       0.139500
     56 H24          1.2220     0.0050    -2.3160 ha         1 SOF       0.139500
     57 H21         -3.7140     0.0010    -2.5630 ha         1 SOF       0.137000
     58 H23          0.1080     0.0030    -4.5120 ha         1 SOF       0.137000
     59 H26         -0.7090     0.0020    -6.1170 ha         1 SOF       0.131000
     60 H30         -4.5330    -0.0050    -4.1700 ha         1 SOF       0.131000
     61 H27         -1.8360     0.0030    -8.3080 ha         1 SOF       0.129500
     62 H28         -4.2980     0.0040    -8.4330 ha         1 SOF       0.129000
     63 H29         -5.6420    -0.0010    -6.3680 ha         1 SOF       0.129500
@<TRIPOS>BOND
     1     1     2 1
     2     1    19 1
     3     2     3 1
     4     3     4 2
     5     3     5 1
     6     5     6 1
     7     5    18 1
     8     6     7 1
     9     7     8 1
    10     8     9 1
    11     8    17 1
    12     9    10 1
    13     9    14 1
    14    10    11 1
    15    11    12 1
    16    12    13 1
    17    12    15 1
    18    13    14 1
    19    15    16 1
    20    17    18 1
    21    19    20 ar
    22    19    24 ar
    23    20    21 ar
    24    21    22 ar
    25    22    23 ar
    26    22    25 1
    27    23    24 ar
    28    25    26 ar
    29    25    30 ar
    30    26    27 ar
    31    27    28 ar
    32    28    29 ar
    33    29    30 ar
    34     2    31 1
    35     2    32 1
    36     6    33 1
    37     6    34 1
    38    18    35 1
    39    18    36 1
    40     7    37 1
    41     7    38 1
    42     8    39 1
    43    17    40 1
    44    17    41 1
    45    10    42 1
    46    10    43 1
    47    14    44 1
    48    14    45 1
    49    11    46 1
    50    11    47 1
    51    13    48 1
    52    13    49 1
    53    15    50 1
    54    15    51 1
    55    16    52 1
    56    16    53 1
    57    16    54 1
    58    20    55 1
    59    24    56 1
    60    21    57 1
    61    23    58 1
    62    26    59 1
    63    30    60 1
    64    27    61 1
    65    28    62 1
    66    29    63 1
@<TRIPOS>SUBSTRUCTURE
     1 SOF         1 TEMP              0 ****  ****    0 ROOT
