@<TRIPOS>MOLECULE
SOF
   63    66     1     0     0
SMALL
bcc


@<TRIPOS>ATOM
      1 O01          0.0000     0.0000     0.0000 os         1 SOF      -0.265900
      2 C02          1.4290     0.0000     0.0000 c3         1 SOF       0.128400
      3 C03          1.9310     0.0000     1.4210 c          1 SOF       0.580100
      4 O04          1.1430     0.0000     2.3430 o          1 SOF      -0.615100
      5 N05          3.2560    -0.0010     1.6670 n          1 SOF      -0.162800
      6 C06          3.7610    -0.0000     3.0470 c3         1 SOF       0.055000
      7 C07          4.7400     1.1670     3.2140 c3         1 SOF      -0.073400
      8 C08          5.8310     1.0700     2.1450 c3         1 SOF       0.131500
      9 N09          6.7890     2.1690     2.3230 n3         1 SOF      -0.524600
     10 C10          7.9160     2.0400     1.3900 c3         1 SOF       0.095800
     11 C11          8.9290     3.1550     1.6600 c3         1 SOF       0.155300
     12 N12          8.2690     4.4600     1.5080 n3         1 SOF      -0.538600
     13 C13          7.1420     4.5880     2.4420 c3         1 SOF       0.155300
     14 C14          6.1290     3.4730     2.1720 c3         1 SOF       0.095800
     15 C15          7.8310     4.6700     0.1220 c3         1 SOF       0.134800
     16 C16          7.3790     6.1210    -0.0560 c3         1 SOF      -0.001100
     17 C17          5.1960     1.1660     0.7560 c3         1 SOF      -0.073400
     18 C18          4.2240    -0.0060     0.5610 c3         1 SOF       0.055000
     19 C19         -0.6160     0.0010    -1.2110 ca         1 SOF       0.147100
     20 C20         -2.0040     0.0010    -1.2810 ca         1 SOF      -0.173500
     21 C21         -2.6320     0.0010    -2.5080 ca         1 SOF      -0.056000
     22 C22         -1.8740     0.0010    -3.6790 cp         1 SOF      -0.073000
     23 C23         -0.4830     0.0010    -3.6040 ca         1 SOF      -0.056000
     24 C24          0.1400     0.0060    -2.3740 ca         1 SOF      -0.173500
     25 C25         -2.5480     0.0020    -5.0010 cp         1 SOF      -0.020000
     26 C26         -1.7910     0.0020    -6.1700 ca         1 SOF      -0.105000
     27 C27         -2.4230     0.0020    -7.3980 ca         1 SOF      -0.095500
     28 C28         -3.8050     0.0020    -7.4670 ca         1 SOF      -0.105000
     29 C29         -4.5610     0.0010    -6.3080 ca         1 SOF      -0.095500
     30 C30         -3.9400    -0.0040    -5.0770 ca         1 SOF      -0.105000
     31 H021         1.7900     0.8850    -0.5110 h1         1 SOF       0.016700
     32 H022         1.7900    -0.8850    -0.5110 h1         1 SOF       0.016700
     33 H061         2.9330     0.1200     3.7360 h1         1 SOF       0.030450
     34 H062         4.2730    -0.9340     3.2460 h1         1 SOF       0.030450
     35 H181         3.7000     0.1090    -0.3800 h1         1 SOF       0.030450
     36 H182         4.7750    -0.9390     0.5650 h1         1 SOF       0.030450
     37 H071         5.1930     1.1190     4.1970 hc         1 SOF       0.034700
     38 H072         4.2060     2.1030     3.1010 hc         1 SOF       0.034700
     39 H08          6.3430     0.1200     2.2400 h1         1 SOF       0.040700
     40 H171         5.9720     1.1210     0.0010 hc         1 SOF       0.034700
     41 H172         4.6550     2.1010     0.6710 hc         1 SOF       0.034700
     42 H101         7.5530     2.1230     0.3720 h1         1 SOF       0.022200
     43 H102         8.3940     1.0780     1.5310 h1         1 SOF       0.022200
     44 H141         5.3130     3.5480     2.8800 h1         1 SOF       0.022200
     45 H142         5.7490     3.5690     1.1620 h1         1 SOF       0.022200
     46 H111         9.7450     3.0800     0.9510 h1         1 SOF       0.031700
     47 H112         9.3100     3.0600     2.6690 h1         1 SOF       0.031700
     48 H131         6.6640     5.5500     2.3020 h1         1 SOF       0.031700
     49 H132         7.5060     4.5040     3.4590 h1         1 SOF       0.031700
     50 HA1          7.0060     4.0050    -0.1010 h1         1 SOF       0.010700
     51 HB2          8.6540     4.4640    -0.5520 h1         1 SOF       0.010700
     52 H161         7.5580     6.4330    -1.0770 hc         1 SOF       0.007367
     53 H162         7.9370     6.7590     0.6200 hc         1 SOF       0.007367
     54 H163         6.3210     6.1990     0.1650 hc         1 SOF       0.007367
     55 H20         -2.5920     0.0000    -0.3720 ha         1 SOF       0.117500
     56 H24          1.2220     0.0050    -2.3160 ha         1 SOF       0.117500
     57 H21         -3.7140     0.0010    -2.5630 ha         1 SOF       0.111500
     58 H23          0.1080     0.0030    -4.5120 ha         1 SOF       0.111500
     59 H26         -0.7090     0.0020    -6.1170 ha         1 SOF       0.110000
     60 H30         -4.5330    -0.0050    -4.1700 ha         1 SOF       0.110000
     61 H27         -1.8360     0.0030    -8.3080 ha         1 SOF       0.101500
     62 H28         -4.2980     0.0040    -8.4330 ha         1 SOF       0.102000
     63 H29         -5.6420    -0.0010    -6.3680 ha         1 SOF       0.101500
@<TRIPOS>BOND
     1     1     2 1   
     2     1    19 1   
     3     2     3 1   
     4     2    31 1   
     5     2    32 1   
     6     3     4 2   
     7     3     5 1   
     8     5     6 1   
     9     5    18 1   
    10     6     7 1   
    11     6    33 1   
    12     6    34 1   
    13     7     8 1   
    14     7    37 1   
    15     7    38 1   
    16     8     9 1   
    17     8    17 1   
    18     8    39 1   
    19     9    10 1   
    20     9    14 1   
    21    10    11 1   
    22    10    42 1   
    23    10    43 1   
    24    11    12 1   
    25    11    46 1   
    26    11    47 1   
    27    12    13 1   
    28    12    15 1   
    29    13    14 1   
    30    13    48 1   
    31    13    49 1   
    32    14    44 1   
    33    14    45 1   
    34    15    16 1   
    35    15    50 1   
    36    15    51 1   
    37    16    52 1   
    38    16    53 1   
    39    16    54 1   
    40    17    18 1   
    41    17    40 1   
    42    17    41 1   
    43    18    35 1   
    44    18    36 1   
    45    19    20 ar  
    46    19    24 ar  
    47    20    21 ar  
    48    20    55 1   
    49    21    22 ar  
    50    21    57 1   
    51    22    23 ar  
    52    22    25 1   
    53    23    24 ar  
    54    23    58 1   
    55    24    56 1   
    56    25    26 ar  
    57    25    30 ar  
    58    26    27 ar  
    59    26    59 1   
    60    27    28 ar  
    61    27    61 1   
    62    28    29 ar  
    63    28    62 1   
    64    29    30 ar  
    65    29    63 1   
    66    30    60 1   
@<TRIPOS>SUBSTRUCTURE
     1 SOF         1 TEMP              0 ****  ****    0 ROOT
