@<TRIPOS>MOLECULE
SOG
   48    48     1     0     0
SMALL
bcc


@<TRIPOS>ATOM
      1 C1         -0.1810    0.0760    0.1920 c3        1 SOG      0.184200
      2 C2          1.3390   -0.0630    0.0580 c3        1 SOG      0.094100
      3 C3          1.9880   -0.0880    1.4530 c3        1 SOG      0.110100
      4 C4          1.5260    1.1280    2.2720 c3        1 SOG      0.125100
      5 C5         -0.0080    1.1630    2.3130 c3        1 SOG      0.091100
      6 C6         -0.5080    2.4400    2.9950 c3        1 SOG      0.141400
      7 C2'        -3.2520    0.1770   -2.5330 c3        1 SOG     -0.073400
      8 C3'        -4.7240   -0.1710   -2.4430 c3        1 SOG     -0.076400
      9 C4'        -5.4180    0.0570   -3.7680 c3        1 SOG     -0.079400
     10 C5'        -6.8900   -0.2880   -3.6820 c3        1 SOG     -0.079400
     11 C6'        -7.5850   -0.0610   -5.0070 c3        1 SOG     -0.079400
     12 C7'        -9.0570   -0.4060   -4.9230 c3        1 SOG     -0.080400
     13 C8'        -9.7540   -0.1810   -6.2400 c3        1 SOG     -0.093100
     14 S1         -0.8580    0.3720   -1.4290 ss        1 SOG     -0.286200
     15 O2          1.6980   -1.2940   -0.5480 oh        1 SOG     -0.603800
     16 O3          3.3980    0.0070    1.3530 oh        1 SOG     -0.605800
     17 O4          1.9790    1.0230    3.6100 oh        1 SOG     -0.594800
     18 O5         -0.5330    1.2020    0.9820 os        1 SOG     -0.408600
     19 O6         -1.9130    2.4350    3.1180 oh        1 SOG     -0.594800
     20 H1         -0.6180   -0.8550    0.6410 h2        1 SOG      0.070700
     21 H2          1.7540    0.7960   -0.5400 h1        1 SOG      0.074700
     22 H3          1.7110   -1.0430    1.9820 h1        1 SOG      0.064700
     23 H4          1.9290    2.0700    1.8050 h1        1 SOG      0.063700
     24 H5         -0.4020    0.2560    2.8470 h1        1 SOG      0.068700
     25 H61        -0.1120    2.4710    4.0450 h1        1 SOG      0.065200
     26 H62        -0.1660    3.3400    2.4200 h1        1 SOG      0.065200
     27 H1'1       -3.0160    0.5900   -0.4130 h1        1 SOG      0.067700
     28 H1'2       -2.6620   -1.1160   -0.8910 h1        1 SOG      0.067700
     29 H2'1       -2.7660   -0.4510   -3.3270 hc        1 SOG      0.056700
     30 H2'2       -3.1390    1.2520   -2.8400 hc        1 SOG      0.056700
     31 H3'1       -5.2110    0.4560   -1.6500 hc        1 SOG      0.042700
     32 H3'2       -4.8400   -1.2440   -2.1370 hc        1 SOG      0.042700
     33 H4'1       -4.9310   -0.5690   -4.5620 hc        1 SOG      0.042200
     34 H4'2       -5.3010    1.1300   -4.0750 hc        1 SOG      0.042200
     35 H5'1       -7.3770    0.3380   -2.8890 hc        1 SOG      0.040200
     36 H5'2       -7.0070   -1.3610   -3.3750 hc        1 SOG      0.040200
     37 H6'1       -7.0980   -0.6870   -5.8010 hc        1 SOG      0.040200
     38 H6'2       -7.4680    1.0110   -5.3150 hc        1 SOG      0.040200
     39 H7'1       -9.5420    0.2200   -4.1280 hc        1 SOG      0.038700
     40 H7'2       -9.1720   -1.4790   -4.6140 hc        1 SOG      0.038700
     41 H8'1      -10.8360   -0.4410   -6.1560 hc        1 SOG      0.033033
     42 H8'2       -9.6710    0.8870   -6.5530 hc        1 SOG      0.033033
     43 H8'3       -9.3000   -0.8160   -7.0400 hc        1 SOG      0.033033
     44 HO2         1.2650   -1.3190   -1.4120 ho        1 SOG      0.424000
     45 HO3         3.6850   -0.7230    0.7870 ho        1 SOG      0.427000
     46 HO4         2.9380    0.9060    3.5640 ho        1 SOG      0.425000
     47 HO6        -2.2750    2.3970    2.2240 ho        1 SOG      0.408000
     48 C1'        -2.5660   -0.0500   -1.2100 c3        1 SOG     -0.003300
@<TRIPOS>BOND
     1    1    2 1   
     2    1   14 1   
     3    1   18 1   
     4    1   20 1   
     5    2    3 1   
     6    2   15 1   
     7    2   21 1   
     8    3    4 1   
     9    3   16 1   
    10    3   22 1   
    11    4    5 1   
    12    4   17 1   
    13    4   23 1   
    14    5    6 1   
    15    5   18 1   
    16    5   24 1   
    17    6   19 1   
    18    6   25 1   
    19    6   26 1   
    20    7    8 1   
    21    7   29 1   
    22    7   30 1   
    23    7   48 1   
    24    8    9 1   
    25    8   31 1   
    26    8   32 1   
    27    9   10 1   
    28    9   33 1   
    29    9   34 1   
    30   10   11 1   
    31   10   35 1   
    32   10   36 1   
    33   11   12 1   
    34   11   37 1   
    35   11   38 1   
    36   12   13 1   
    37   12   39 1   
    38   12   40 1   
    39   13   41 1   
    40   13   42 1   
    41   13   43 1   
    42   14   48 1   
    43   15   44 1   
    44   16   45 1   
    45   17   46 1   
    46   19   47 1   
    47   27   48 1   
    48   28   48 1   
@<TRIPOS>SUBSTRUCTURE
     1 SOG         1 TEMP              0 ****  ****    0 ROOT
