@<TRIPOS>MOLECULE
molecule
   48    48     1     0     0
SMALL
bcc


@<TRIPOS>ATOM
      1 C1           0.0000     0.0000     0.0000 c3         1 SOG       0.208200
      2 C2           1.5300     0.0000     0.0000 c3         1 SOG       0.121100
      3 C3           2.0290     0.0000     1.4490 c3         1 SOG       0.121100
      4 C4           1.3780     1.1700     2.1910 c3         1 SOG       0.108100
      5 C5          -0.1410     1.0830     2.0250 c3         1 SOG       0.128100
      6 C6          -0.8020     2.2290     2.7920 c3         1 SOG       0.150400
      7 C2'         -3.1310    -0.0730    -2.7520 c3         1 SOG      -0.070400
      8 C3'         -4.6400    -0.0710    -2.5040 c3         1 SOG      -0.079400
      9 C4'         -5.3790    -0.1050    -3.8410 c3         1 SOG      -0.081400
     10 C5'         -6.8880    -0.1030    -3.5920 c3         1 SOG      -0.082400
     11 C6'         -7.6280    -0.1360    -4.9300 c3         1 SOG      -0.081400
     12 C7'         -9.1360    -0.1350    -4.6810 c3         1 SOG      -0.084400
     13 C8'         -9.8760    -0.1680    -6.0190 c3         1 SOG      -0.092100
     14 S1          -0.6030    -0.0420    -1.7100 ss         1 SOG      -0.309200
     15 O2           2.0090    -1.1660    -0.6720 oh         1 SOG      -0.591800
     16 O3           3.4510     0.1490     1.4700 oh         1 SOG      -0.603800
     17 O4           1.7120     1.1040     3.5790 oh         1 SOG      -0.602800
     18 O5          -0.4820     1.1760     0.6440 os         1 SOG      -0.373600
     19 O6          -2.2210     2.1460     2.6440 oh         1 SOG      -0.602800
     20 H1          -0.3580    -0.8720     0.5340 h2         1 SOG       0.068700
     21 H2           1.8910     0.8880    -0.5050 h1         1 SOG       0.067700
     22 H3           1.7500    -0.9310     1.9270 h1         1 SOG       0.062700
     23 H4           1.7330     2.1040     1.7730 h1         1 SOG       0.059700
     24 H5          -0.4890     0.1350     2.4160 h1         1 SOG       0.062700
     25 H61         -0.5430     2.1580     3.8410 h1         1 SOG       0.036200
     26 H62         -0.4530     3.1760     2.3980 h1         1 SOG       0.036200
     27 H1'1        -2.6620    -0.9120    -0.8300 h1         1 SOG       0.069200
     28 H1'2        -2.6670     0.8570    -0.8710 h1         1 SOG       0.069200
     29 H2'1        -2.8550    -0.9690    -3.2940 hc         1 SOG       0.052200
     30 H2'2        -2.8600     0.7990    -3.3350 hc         1 SOG       0.052200
     31 H3'1        -4.9150     0.8250    -1.9610 hc         1 SOG       0.044200
     32 H3'2        -4.9100    -0.9430    -1.9200 hc         1 SOG       0.044200
     33 H4'1        -5.1040    -1.0010    -4.3830 hc         1 SOG       0.042700
     34 H4'2        -5.1090     0.7670    -4.4240 hc         1 SOG       0.042700
     35 H5'1        -7.1590    -0.9750    -3.0090 hc         1 SOG       0.041200
     36 H5'2        -7.1640     0.7940    -3.0500 hc         1 SOG       0.041200
     37 H6'1        -7.3530    -1.0330    -5.4720 hc         1 SOG       0.041200
     38 H6'2        -7.3580     0.7360    -5.5130 hc         1 SOG       0.041200
     39 H7'1        -9.4120     0.7620    -4.1380 hc         1 SOG       0.039700
     40 H7'2        -9.4070    -1.0070    -4.0970 hc         1 SOG       0.039700
     41 H8'1        -9.6060     0.7040    -6.6030 hc         1 SOG       0.032367
     42 H8'2        -9.6010    -1.0640    -6.5620 hc         1 SOG       0.032367
     43 H8'3       -10.9450    -0.1660    -5.8420 hc         1 SOG       0.032367
     44 HO2          2.4710    -0.9120    -1.4530 ho         1 SOG       0.416000
     45 HO3          3.8410    -0.6160     1.8600 ho         1 SOG       0.415000
     46 HO4          2.4000     1.7220     3.7660 ho         1 SOG       0.414000
     47 HO6         -2.6330     2.7890     3.1970 ho         1 SOG       0.404000
     48 C1'         -2.3920    -0.0400    -1.4140 c3         1 SOG       0.016700
@<TRIPOS>BOND
     1     1     2 1
     2     1    14 1
     3     1    18 1
     4     1    20 1
     5     2     3 1
     6     2    15 1
     7     2    21 1
     8     3     4 1
     9     3    16 1
    10     3    22 1
    11     4     5 1
    12     4    17 1
    13     4    23 1
    14     5     6 1
    15     5    18 1
    16     5    24 1
    17     6    19 1
    18     6    25 1
    19     6    26 1
    20    48     7 1
    21    48    14 1
    22    48    27 1
    23    48    28 1
    24     7     8 1
    25     7    29 1
    26     7    30 1
    27     8     9 1
    28     8    31 1
    29     8    32 1
    30     9    10 1
    31     9    33 1
    32     9    34 1
    33    10    11 1
    34    10    35 1
    35    10    36 1
    36    11    12 1
    37    11    37 1
    38    11    38 1
    39    12    13 1
    40    12    39 1
    41    12    40 1
    42    13    41 1
    43    13    42 1
    44    13    43 1
    45    15    44 1
    46    16    45 1
    47    17    46 1
    48    19    47 1
@<TRIPOS>SUBSTRUCTURE
     1 SOG         1 TEMP              0 ****  ****    0 ROOT
