@<TRIPOS>MOLECULE
molecule
    5     4     1     0     0
SMALL
bcc


@<TRIPOS>ATOM
      1 S           -0.0560     0.0000     0.0360 s6         1 SOH       1.513800
      2 O1           1.0900     0.0000    -0.9650 o          1 SOH      -0.878200
      3 O2           0.0930    -1.2080     0.8320 o          1 SOH      -0.878200
      4 O3           0.0930     1.2080     0.8320 o          1 SOH      -0.878200
      5 O4          -1.2840     0.0000    -0.7440 o          1 SOH      -0.878200
@<TRIPOS>BOND
     1     1     2 1
     2     1     3 1
     3     1     4 1
     4     1     5 1
@<TRIPOS>SUBSTRUCTURE
     1 SOH         1 TEMP              0 ****  ****    0 ROOT
