@<TRIPOS>MOLECULE
molecule
    8     7     1     0     0
SMALL
bcc


@<TRIPOS>ATOM
      1 P1           0.0000     0.0000     0.0000 p5         1 SOM       1.000600
      2 O1           1.6090     0.0000     0.0000 o          1 SOM      -0.814000
      3 O2          -0.4940     0.0000     1.3950 o          1 SOM      -0.814000
      4 C1          -0.6090     1.4850    -0.8600 c3         1 SOM      -0.291300
      5 HP1         -0.4670    -1.1480    -0.6620 hp         1 SOM      -0.194400
      6 H11         -1.6930     1.4840    -0.8600 hc         1 SOM       0.037700
      7 H12         -0.2500     2.3710    -0.3510 hc         1 SOM       0.037700
      8 H13         -0.2480     1.4850    -1.8820 hc         1 SOM       0.037700
@<TRIPOS>BOND
     1     1     2 1
     2     1     3 1
     3     1     4 1
     4     1     5 1
     5     4     6 1
     6     4     7 1
     7     4     8 1
@<TRIPOS>SUBSTRUCTURE
     1 SOM         1 TEMP              0 ****  ****    0 ROOT
