@<TRIPOS>MOLECULE
SON
   40    42     1     0     0
SMALL
bcc


@<TRIPOS>ATOM
      1 PB           0.0000     0.0000     0.0000 p5         1 SON       0.428700
      2 O1B          1.4800     0.0000     0.0000 o          1 SON      -0.722833
      3 O2B         -0.5370     0.0000     1.5180 o          1 SON      -0.722833
      4 O3B         -0.5360    -1.3160    -0.7580 o          1 SON      -0.722833
      5 CB          -0.6080     1.4870    -0.8610 c3         1 SON      -0.055600
      6 CA          -0.0070     2.7150    -0.2260 c          1 SON       0.736100
      7 OA           1.1190     3.0500    -0.5070 o          1 SON      -0.669000
      8 O5'         -0.7240     3.4370     0.6500 os         1 SON      -0.416900
      9 C5'         -0.1450     4.6200     1.2610 c3         1 SON       0.218400
     10 C4'         -1.1630     5.2520     2.2120 c3         1 SON       0.163100
     11 O4'         -1.4150     4.3760     3.3330 os         1 SON      -0.339600
     12 C1'         -1.9580     5.2260     4.3660 c3         1 SON       0.135800
     13 N9          -1.8040     4.5970     5.6800 na         1 SON       0.213000
     14 C4          -2.5410     4.8720     6.8040 ca         1 SON       0.218800
     15 N3          -3.5380     5.7020     7.0920 nb         1 SON      -0.604000
     16 C2          -4.0530     5.7360     8.3040 ca         1 SON       0.601900
     17 N1          -3.6150     4.9640     9.2820 nb         1 SON      -0.678000
     18 C6          -2.6220     4.1040     9.0880 ca         1 SON       0.572200
     19 N6          -2.1700     3.2990    10.1190 nv         1 SON      -0.642500
     20 C5          -2.0350     4.0340     7.8120 ca         1 SON      -0.171200
     21 N7          -1.0420     3.2980     7.2600 nc         1 SON      -0.516100
     22 C8          -0.9020     3.6290     6.0090 cd         1 SON       0.310700
     23 C2'         -1.1250     6.5250     4.2910 c3         1 SON       0.117100
     24 O2'         -1.9460     7.6690     4.5330 oh         1 SON      -0.549800
     25 C3'         -0.5880     6.5400     2.8410 c3         1 SON       0.127100
     26 O3'         -1.0620     7.6930     2.1420 oh         1 SON      -0.558800
     27 HB1         -0.3200     1.4430    -1.9040 hc         1 SON       0.015200
     28 HB2         -1.6870     1.5330    -0.7850 hc         1 SON       0.015200
     29 H5'1         0.1190     5.3330     0.4890 h1         1 SON       0.003200
     30 H5'2         0.7440     4.3420     1.8150 h1         1 SON       0.003200
     31 H4'         -2.0880     5.4690     1.6930 h1         1 SON       0.040700
     32 H1'         -3.0010     5.4390     4.1650 h2         1 SON       0.062700
     33 H2          -4.8650     6.4240     8.5050 h5         1 SON      -0.013900
     34 HN61        -1.4450     3.6250    10.7270 hn         1 SON       0.272800
     35 HN62        -2.5900     2.4040    10.2760 hn         1 SON       0.272800
     36 H8          -0.1770     3.1980     5.3290 h5         1 SON       0.069800
     37 H2'         -0.3040     6.4860     4.9960 h1         1 SON       0.010700
     38 H3          -1.4730     8.2900     5.0610 ho         1 SON       0.378000
     39 H3'          0.4950     6.5080     2.8410 h1         1 SON       0.018700
     40 H1          -0.3300     8.2360     1.8990 ho         1 SON       0.377000
@<TRIPOS>BOND
     1     1     2 1   
     2     1     3 1   
     3     1     4 1   
     4     1     5 1   
     5     5     6 1   
     6     5    27 1   
     7     5    28 1   
     8     6     7 2   
     9     6     8 1   
    10     8     9 1   
    11     9    10 1   
    12     9    29 1   
    13     9    30 1   
    14    10    11 1   
    15    10    25 1   
    16    10    31 1   
    17    11    12 1   
    18    12    13 1   
    19    12    23 1   
    20    12    32 1   
    21    13    14 1   
    22    13    22 1   
    23    14    15 ar  
    24    14    20 ar  
    25    15    16 ar  
    26    16    17 ar  
    27    16    33 1   
    28    17    18 ar  
    29    18    19 1   
    30    18    20 ar  
    31    19    34 1   
    32    19    35 1   
    33    20    21 1   
    34    21    22 2   
    35    22    36 1   
    36    23    24 1   
    37    23    25 1   
    38    23    37 1   
    39    24    38 1   
    40    25    26 1   
    41    25    39 1   
    42    26    40 1   
@<TRIPOS>SUBSTRUCTURE
     1 SON         1 TEMP              0 ****  ****    0 ROOT
