@<TRIPOS>MOLECULE
molecule
   64    63     1     0     0
SMALL
bcc


@<TRIPOS>ATOM
      1 C1           0.0000     0.0000     0.0000 c          1 SOO       0.585900
      2 O1           1.2160     0.0000     0.0000 o          1 SOO      -0.549100
      3 S1          -0.8800     0.0000     1.5270 ss         1 SOO      -0.277700
      4 C2          -0.7370     0.0070    -1.2730 ce         1 SOO      -0.252200
      5 C3          -0.0720     0.0130    -2.4250 c2         1 SOO      -0.095200
      6 C4          -0.8260     0.0200    -3.7290 c3         1 SOO      -0.057200
      7 C5          -0.3660     1.2060    -4.5790 c3         1 SOO      -0.078400
      8 C6          -1.1320     1.2130    -5.9030 c3         1 SOO      -0.082400
      9 C7          -0.6710     2.3990    -6.7530 c3         1 SOO      -0.084400
     10 C8          -1.4370     2.4060    -8.0770 c3         1 SOO      -0.092100
     11 O23          2.3160    -5.2320    11.6750 o          1 SOO      -0.901167
     12 P24          3.4330    -5.0190    12.6220 p5         1 SOO       1.182900
     13 O26          4.5330    -6.1780    12.4260 o          1 SOO      -0.901167
     14 O27          4.1100    -3.5850    12.3420 os         1 SOO      -0.586200
     15 O28          2.8720    -5.0620    14.1300 o          1 SOO      -0.901167
     16 C29          4.3140    -1.1970    12.0370 c3         1 SOO      -0.070000
     17 C30          5.3960    -1.1290    13.1160 c3         1 SOO      -0.067600
     18 C31          4.9690    -1.4060    10.6700 c3         1 SOO      -0.067600
     19 C32          3.5200     0.1110    12.0270 c3         1 SOO       0.088100
     20 O33          3.0160     0.3720    13.3390 oh         1 SOO      -0.551800
     21 C34          2.3710    -0.0050    11.0600 c          1 SOO       0.643100
     22 O35          1.2350    -0.0980    11.4770 o          1 SOO      -0.581100
     23 N36          2.6040    -0.0040     9.7330 ns         1 SOO      -0.602900
     24 C37          1.4810    -0.0040     8.7920 c3         1 SOO       0.129000
     25 C38          2.0160    -0.0030     7.3590 c3         1 SOO      -0.174400
     26 C39          0.8620    -0.0030     6.3910 c          1 SOO       0.664100
     27 O40         -0.2780    -0.0020     6.8070 o          1 SOO      -0.594100
     28 N41          1.0950    -0.0020     5.0640 ns         1 SOO      -0.597900
     29 C42         -0.0280    -0.0020     4.1230 c3         1 SOO       0.126000
     30 C43          0.5070    -0.0010     2.6890 c3         1 SOO      -0.007300
     31 H2          -1.8200     0.0070    -1.2720 ha         1 SOO       0.141000
     32 H3           1.0110     0.0130    -2.4250 ha         1 SOO       0.148000
     33 H4          -0.6330    -0.9030    -4.2630 hc         1 SOO       0.052200
     34 H4A         -1.8880     0.1080    -3.5320 hc         1 SOO       0.052200
     35 H5           0.6950     1.1190    -4.7770 hc         1 SOO       0.046200
     36 H5A         -0.5590     2.1290    -4.0460 hc         1 SOO       0.046200
     37 H6          -0.9390     0.2900    -6.4370 hc         1 SOO       0.041200
     38 H6A         -2.1940     1.3010    -5.7060 hc         1 SOO       0.041200
     39 H7           0.3910     2.3100    -6.9500 hc         1 SOO       0.041200
     40 H7A         -0.8630     3.3210    -6.2190 hc         1 SOO       0.041200
     41 H8          -2.4980     2.5060    -7.8800 hc         1 SOO       0.031367
     42 H8A         -1.2540     1.4780    -8.6060 hc         1 SOO       0.031367
     43 H8B         -1.1020     3.2390    -8.6830 hc         1 SOO       0.031367
     44 H28          2.6030    -2.4100    11.5700 h1         1 SOO       0.031200
     45 H28A         2.9060    -2.2150    13.3020 h1         1 SOO       0.031200
     46 H30          4.9320    -1.1640    14.0950 hc         1 SOO       0.028867
     47 H30A         6.0690    -1.9710    13.0060 hc         1 SOO       0.028867
     48 H30B         5.9520    -0.2060    13.0130 hc         1 SOO       0.028867
     49 H31          4.2810    -1.9290    10.0160 hc         1 SOO       0.028867
     50 H31A         5.2170    -0.4440    10.2370 hc         1 SOO       0.028867
     51 H31B         5.8720    -1.9920    10.7880 hc         1 SOO       0.028867
     52 H32          4.1680     0.9240    11.7220 h1         1 SOO       0.007700
     53 HO33         2.9910     1.3030    13.4870 ho         1 SOO       0.373000
     54 HN36         3.5430     0.0390     9.3900 hn         1 SOO       0.309500
     55 H37          0.8770    -0.8890     8.9520 h1         1 SOO       0.068700
     56 H37A         0.8760     0.8800     8.9520 h1         1 SOO       0.068700
     57 H38          2.6210     0.8810     7.2000 hc         1 SOO       0.062700
     58 H38A         2.6210    -0.8880     7.1990 hc         1 SOO       0.062700
     59 HN41         2.0350    -0.0100     4.7210 hn         1 SOO       0.311500
     60 H42         -0.6340     0.8820     4.2830 h1         1 SOO       0.063200
     61 H42A        -0.6320    -0.8870     4.2820 h1         1 SOO       0.063200
     62 H43          1.1120     0.8840     2.5300 h1         1 SOO       0.077200
     63 H43A         1.1110    -0.8850     2.5290 h1         1 SOO       0.077200
     64 C28          3.3690    -2.3630    12.3340 c3         1 SOO       0.229400
@<TRIPOS>BOND
     1     1     2 2
     2     1     3 1
     3     1     4 1
     4     3    30 1
     5     4     5 2
     6     5     6 1
     7     6     7 1
     8     7     8 1
     9     8     9 1
    10     9    10 1
    11    11    12 1
    12    12    13 1
    13    12    14 1
    14    12    15 1
    15    14    64 1
    16    64    16 1
    17    16    17 1
    18    16    18 1
    19    16    19 1
    20    19    20 1
    21    19    21 1
    22    21    22 2
    23    21    23 1
    24    23    24 1
    25    24    25 1
    26    25    26 1
    27    26    27 2
    28    26    28 1
    29    28    29 1
    30    29    30 1
    31     4    31 1
    32     5    32 1
    33     6    33 1
    34     6    34 1
    35     7    35 1
    36     7    36 1
    37     8    37 1
    38     8    38 1
    39     9    39 1
    40     9    40 1
    41    10    41 1
    42    10    42 1
    43    10    43 1
    44    64    44 1
    45    64    45 1
    46    17    46 1
    47    17    47 1
    48    17    48 1
    49    18    49 1
    50    18    50 1
    51    18    51 1
    52    19    52 1
    53    20    53 1
    54    23    54 1
    55    24    55 1
    56    24    56 1
    57    25    57 1
    58    25    58 1
    59    28    59 1
    60    29    60 1
    61    29    61 1
    62    30    62 1
    63    30    63 1
@<TRIPOS>SUBSTRUCTURE
     1 SOO         1 TEMP              0 ****  ****    0 ROOT
