@<TRIPOS>MOLECULE
molecule
   26    25     1     0     0
SMALL
bcc


@<TRIPOS>ATOM
      1 C1           0.0000     0.0000     0.0000 c3         1 SOR       0.113900
      2 C2           1.5290     0.0000     0.0000 c3         1 SOR       0.134100
      3 C3           2.0410     0.0000     1.4410 c3         1 SOR       0.149600
      4 C4           3.5700    -0.0000     1.4400 c3         1 SOR       0.149600
      5 C5           4.0820     0.0010     2.8810 c3         1 SOR       0.134100
      6 C6           5.6110    -0.0000     2.8810 c3         1 SOR       0.113900
      7 O1          -0.4780    -0.0010    -1.3470 oh         1 SOR      -0.612800
      8 O2           2.0060    -1.1660    -0.6740 oh         1 SOR      -0.588300
      9 O3           1.5660    -1.1660     2.1150 oh         1 SOR      -0.566300
     10 O4           4.0460    -1.1670     0.7660 oh         1 SOR      -0.566300
     11 O5           3.6060     1.1670     3.5550 oh         1 SOR      -0.588300
     12 O6           6.0890     0.0000     4.2270 oh         1 SOR      -0.612800
     13 H11         -0.3610     0.8850     0.5100 h1         1 SOR       0.030950
     14 H12         -0.3610    -0.8840     0.5120 h1         1 SOR       0.030950
     15 H2           1.8900     0.8840    -0.5110 h1         1 SOR       0.053200
     16 H3           1.6800     0.8850     1.9520 h1         1 SOR       0.048700
     17 H4           3.9300     0.8840     0.9290 h1         1 SOR       0.048700
     18 H5           3.7220    -0.8830     3.3930 h1         1 SOR       0.053200
     19 H61          5.9710    -0.8850     2.3710 h1         1 SOR       0.030950
     20 H62          5.9720     0.8840     2.3700 h1         1 SOR       0.030950
     21 HO1         -1.4070     0.1600    -1.3510 ho         1 SOR       0.405000
     22 HO2          2.0680    -0.9920    -1.5980 ho         1 SOR       0.408000
     23 HO3          0.9480    -0.9140     2.7810 ho         1 SOR       0.393000
     24 HO4          4.7300    -0.9240     0.1640 ho         1 SOR       0.393000
     25 HO5          3.4070     0.9530     4.4520 ho         1 SOR       0.408000
     26 HO6          7.0270    -0.0880     4.2270 ho         1 SOR       0.405000
@<TRIPOS>BOND
     1     1     2 1
     2     1     7 1
     3     1    13 1
     4     1    14 1
     5     2     3 1
     6     2     8 1
     7     2    15 1
     8     3     4 1
     9     3     9 1
    10     3    16 1
    11     4     5 1
    12     4    10 1
    13     4    17 1
    14     5     6 1
    15     5    11 1
    16     5    18 1
    17     6    12 1
    18     6    19 1
    19     6    20 1
    20     7    21 1
    21     8    22 1
    22     9    23 1
    23    10    24 1
    24    11    25 1
    25    12    26 1
@<TRIPOS>SUBSTRUCTURE
     1 SOR         1 TEMP              0 ****  ****    0 ROOT
