@<TRIPOS>MOLECULE
SOR
   26    25     1     0     0
SMALL
bcc


@<TRIPOS>ATOM
      1 C1          0.0450    0.1210   -0.0570 c3        1 SOR      0.095900
      2 C2          1.5750    0.0990   -0.0060 c3        1 SOR      0.127600
      3 C3          2.0500   -0.1550    1.4350 c3        1 SOR      0.117100
      4 C4          3.5830   -0.0580    1.5310 c3        1 SOR      0.117100
      5 C5          4.0050    0.1240    2.9990 c3        1 SOR      0.127600
      6 C6          5.5250    0.0180    3.1400 c3        1 SOR      0.095900
      7 O1         -0.3050    0.2080   -1.4300 oh        1 SOR     -0.618300
      8 O2          2.0940   -0.9560   -0.8050 oh        1 SOR     -0.621300
      9 O3          1.5850   -1.4040    1.9030 oh        1 SOR     -0.600300
     10 O4          4.1920   -1.2580    1.0810 oh        1 SOR     -0.600300
     11 O5          3.5490    1.4140    3.3830 oh        1 SOR     -0.621300
     12 O6          5.8130    0.2570    4.5100 oh        1 SOR     -0.618300
     13 H11        -0.3470    1.0140    0.4970 h1        1 SOR      0.046200
     14 H12        -0.3640   -0.8200    0.3990 h1        1 SOR      0.046200
     15 H2          1.9820    1.0780   -0.3830 h1        1 SOR      0.062700
     16 H3          1.5830    0.6090    2.1200 h1        1 SOR      0.079700
     17 H4          3.9450    0.8160    0.9210 h1        1 SOR      0.079700
     18 H5          3.5050   -0.6590    3.6360 h1        1 SOR      0.062700
     19 H61         6.0320    0.7910    2.5040 h1        1 SOR      0.046200
     20 H62         5.8630   -1.0070    2.8340 h1        1 SOR      0.046200
     21 HO1        -1.2580    0.0690   -1.4830 ho        1 SOR      0.410500
     22 HO2         1.6480   -0.9100   -1.6610 ho        1 SOR      0.429500
     23 HO3         2.0640   -2.0870    1.4110 ho        1 SOR      0.424500
     24 HO4         3.9630   -1.3550    0.1460 ho        1 SOR      0.424500
     25 HO5         3.9090    1.5760    4.2660 ho        1 SOR      0.429500
     26 HO6         6.7630    0.1350    4.6190 ho        1 SOR      0.410500
@<TRIPOS>BOND
     1    1    2 1   
     2    1    7 1   
     3    1   13 1   
     4    1   14 1   
     5    2    3 1   
     6    2    8 1   
     7    2   15 1   
     8    3    4 1   
     9    3    9 1   
    10    3   16 1   
    11    4    5 1   
    12    4   10 1   
    13    4   17 1   
    14    5    6 1   
    15    5   11 1   
    16    5   18 1   
    17    6   12 1   
    18    6   19 1   
    19    6   20 1   
    20    7   21 1   
    21    8   22 1   
    22    9   23 1   
    23   10   24 1   
    24   11   25 1   
    25   12   26 1   
@<TRIPOS>SUBSTRUCTURE
     1 SOR         1 TEMP              0 ****  ****    0 ROOT
