@<TRIPOS>MOLECULE
molecule
   18    18     1     0     0
SMALL
bcc


@<TRIPOS>ATOM
      1 O1           0.0000     0.0000     0.0000 os         1 SOT      -0.445600
      2 C2           1.4300     0.0000     0.0000 c3         1 SOT       0.119400
      3 C3           1.9340     0.0000     1.4480 c3         1 SOT       0.211800
      4 N4           1.2800    -1.1060     2.1660 n3         1 SOT      -0.829500
      5 C5          -0.1840    -1.2190     2.0780 c3         1 SOT       0.211800
      6 C6          -0.5850    -1.1580     0.6000 c3         1 SOT       0.119400
      7 S            2.1680    -2.1920     3.0480 s6         1 SOT       1.452700
      8 O1S          1.3840    -3.3740     3.1330 o          1 SOT      -0.728867
      9 O2S          3.4820    -2.1680     2.5090 o          1 SOT      -0.728867
     10 H21          1.7900    -0.8860    -0.5080 h1         1 SOT       0.034700
     11 H22          1.7900     0.8860    -0.5080 h1         1 SOT       0.034700
     12 H31          3.0080    -0.1440     1.4590 h1         1 SOT       0.052200
     13 H32          1.6810     0.9410     1.9210 h1         1 SOT       0.052200
     14 H51         -0.5020    -2.1630     2.5020 h1         1 SOT       0.052200
     15 H52         -0.6450    -0.3980     2.6140 h1         1 SOT       0.052200
     16 H61         -1.6640    -1.0990     0.5210 h1         1 SOT       0.034700
     17 H62         -0.2280    -2.0460     0.0920 h1         1 SOT       0.034700
     18 O4           2.2730    -1.6430     4.4630 o          1 SOT      -0.728867
@<TRIPOS>BOND
     1     1     2 1
     2     1     6 1
     3     2     3 1
     4     2    10 1
     5     2    11 1
     6     3     4 1
     7     3    12 1
     8     3    13 1
     9     4     5 1
    10     4     7 1
    11     5     6 1
    12     5    14 1
    13     5    15 1
    14     6    16 1
    15     6    17 1
    16     7     8 1
    17     7     9 1
    18    18     7 1
@<TRIPOS>SUBSTRUCTURE
     1 SOT         1 TEMP              0 ****  ****    0 ROOT
