@<TRIPOS>MOLECULE
SOX
   43    45     1     0     0
SMALL
bcc


@<TRIPOS>ATOM
      1 O8           0.0000     0.0000     0.0000 o          1 SOX      -0.635500
      2 C7           1.2100     0.0000     0.0000 c          1 SOX       0.642500
      3 N4           2.1360     0.0000     1.0010 nj         1 SOX      -0.117800
      4 C3           2.0100     0.6690     2.2870 c3         1 SOX      -0.035300
      5 C11          1.7020    -0.3820     3.3050 c          1 SOX       0.986600
      6 O13          1.6580    -1.5820     3.0820 o          1 SOX      -0.881800
      7 O12          1.4740     0.1790     4.5170 o          1 SOX      -0.881800
      8 C2           3.3150     1.4640     2.5060 c3         1 SOX       0.194800
      9 C10          4.3890     0.6950     3.2920 c3         1 SOX       0.023900
     10 C9           3.0630     2.8140     3.1750 c3         1 SOX       0.023900
     11 S1           3.9240     1.6650     0.8190 s6         1 SOX      -0.699700
     12 C5           3.2980     0.1860     0.1120 cy         1 SOX       0.205500
     13 C6           2.3150     0.1630    -1.0620 cy         1 SOX      -0.060300
     14 N14          2.2150     1.3750    -1.8880 ns         1 SOX      -0.150900
     15 C15          3.2120     1.7540    -2.7650 c          1 SOX       0.596100
     16 O16          4.2630     1.1470    -2.9540 o          1 SOX      -0.643100
     17 C17          2.8440     3.0360    -3.4890 c3         1 SOX      -0.060100
     18 C18          3.8240     4.1560    -3.2520 ca         1 SOX      -0.066300
     19 C19          3.6260     5.0210    -2.1860 ca         1 SOX      -0.088500
     20 C20          4.5330     6.0590    -1.9670 ca         1 SOX      -0.106000
     21 C21          5.6270     6.2200    -2.8180 ca         1 SOX      -0.110000
     22 C22          5.8140     5.3440    -3.8870 ca         1 SOX      -0.106000
     23 C23          4.9080     4.3060    -4.1050 ca         1 SOX      -0.088500
     24 O5           2.9070     2.7790     0.2240 oh         1 SOX      -0.489700
     25 H3           1.1820     1.3660     2.2370 h1         1 SOX       0.045700
     26 H101         5.3350     1.2170     3.2160 hc         1 SOX       0.009033
     27 H102         4.4920    -0.3020     2.8810 hc         1 SOX       0.009033
     28 H103         4.0960     0.6290     4.3330 hc         1 SOX       0.009033
     29 H9C1         2.8970     2.6660     4.2350 hc         1 SOX       0.009033
     30 H9C2         2.1900     3.2790     2.7340 hc         1 SOX       0.009033
     31 H9C3         3.9250     3.4550     3.0310 hc         1 SOX       0.009033
     32 HS           5.2240     1.8890     0.6770 hs         1 SOX       0.186800
     33 H5           3.9760    -0.6580     0.1470 h2         1 SOX       0.066700
     34 H6           2.4270    -0.7370    -1.6550 h1         1 SOX       0.045700
     35 H14          1.3940     1.9430    -1.8150 hn         1 SOX       0.186500
     36 H171         1.8640     3.3540    -3.1530 hc         1 SOX       0.026700
     37 H172         2.7980     2.8330    -4.5520 hc         1 SOX       0.026700
     38 H19          2.7750     4.8920    -1.5280 ha         1 SOX       0.113000
     39 H20          4.3870     6.7400    -1.1370 ha         1 SOX       0.097500
     40 H21          6.3310     7.0250    -2.6490 ha         1 SOX       0.096000
     41 H22          6.6640     5.4690    -4.5470 ha         1 SOX       0.097500
     42 H23          5.0490     3.6230    -4.9340 ha         1 SOX       0.113000
     43 HO5          3.1930     3.6380     0.4870 ho         1 SOX       0.393000
@<TRIPOS>BOND
     1     1     2 2   
     2     2     3 1   
     3     2    13 1   
     4     3     4 1   
     5     3    12 1   
     6     4     5 1   
     7     4     8 1   
     8     4    25 1   
     9     5     6 1   
    10     5     7 1   
    11     8     9 1   
    12     8    10 1   
    13     8    11 1   
    14     9    26 1   
    15     9    27 1   
    16     9    28 1   
    17    10    29 1   
    18    10    30 1   
    19    10    31 1   
    20    11    12 1   
    21    11    24 1   
    22    11    32 1   
    23    12    13 1   
    24    12    33 1   
    25    13    14 1   
    26    13    34 1   
    27    14    15 1   
    28    14    35 1   
    29    15    16 2   
    30    15    17 1   
    31    17    18 1   
    32    17    36 1   
    33    17    37 1   
    34    18    19 ar  
    35    18    23 ar  
    36    19    20 ar  
    37    19    38 1   
    38    20    21 ar  
    39    20    39 1   
    40    21    22 ar  
    41    21    40 1   
    42    22    23 ar  
    43    22    41 1   
    44    23    42 1   
    45    24    43 1   
@<TRIPOS>SUBSTRUCTURE
     1 SOX         1 TEMP              0 ****  ****    0 ROOT
