@<TRIPOS>MOLECULE
SP0
   41    44     1     0     0
SMALL
bcc


@<TRIPOS>ATOM
      1 C22          0.0000     0.0000     0.0000 ca         1 SP0      -0.027000
      2 C23          1.3850     0.0000     0.0000 ca         1 SP0       0.083900
      3 F40          2.0610    -0.0060    -1.1700 f          1 SP0      -0.119900
      4 C24          2.0760     0.0000     1.1990 ca         1 SP0      -0.076000
      5 C25          1.3830     0.0050     2.3960 ca         1 SP0      -0.106000
      6 C26          0.0010     0.0110     2.3940 ca         1 SP0      -0.007000
      7 C21         -0.6910     0.0110     1.1970 ca         1 SP0      -0.143500
      8 S18         -2.4530     0.0180     1.1960 sy         1 SP0       1.047200
      9 O19         -2.8400    -0.3760    -0.1120 o          1 SP0      -0.570800
     10 O20         -2.8410    -0.6300     2.4000 o          1 SP0      -0.570800
     11 N17         -2.9410     1.5930     1.3550 nu         1 SP0      -0.372500
     12 C9          -2.6340     2.5200     0.3640 cc         1 SP0      -0.065700
     13 C10         -2.0170     2.2550    -0.8170 cd         1 SP0      -0.387300
     14 C6          -1.9000     3.4700    -1.5240 cd         1 SP0       0.506800
     15 C4          -1.2840     3.6430    -2.8570 cd         1 SP0       0.017400
     16 C5          -1.1420     4.7820    -3.6010 cc         1 SP0      -0.123000
     17 C1          -0.5230     4.7000    -4.8290 cc         1 SP0      -0.149000
     18 C2          -0.0850     3.4930    -5.2690 cd         1 SP0       0.046900
     19 S3          -0.5400     2.4150    -3.9200 ss         1 SP0      -0.312800
     20 N7          -2.4350     4.4250    -0.7890 nc         1 SP0      -0.656800
     21 N8          -2.9060     3.8540     0.3990 na         1 SP0       0.592300
     22 C11         -3.5420     4.5370     1.4440 ca         1 SP0      -0.153200
     23 C12         -4.6230     3.9590     2.0970 ca         1 SP0      -0.077000
     24 C13         -5.2460     4.6320     3.1300 ca         1 SP0      -0.115500
     25 C14         -4.7980     5.8860     3.5090 ca         1 SP0       0.111900
     26 F27         -5.4110     6.5440     4.5180 f          1 SP0      -0.122900
     27 C15         -3.7200     6.4640     2.8600 ca         1 SP0      -0.115500
     28 C16         -3.0930     5.7930     1.8300 ca         1 SP0      -0.077000
     29 H22         -0.5420     0.0000    -0.9380 ha         1 SP0       0.150000
     30 H24          3.1590    -0.0020     1.2000 ha         1 SP0       0.119000
     31 H25          1.9230     0.0050     3.3340 ha         1 SP0       0.114000
     32 H26         -0.5410     0.0180     3.3320 ha         1 SP0       0.122000
     33 H17         -3.4400     1.8820     2.1740 hn         1 SP0       0.352800
     34 H10         -1.7520     1.2740    -1.1910 ha         1 SP0       0.181000
     35 H5          -1.5010     5.7330    -3.2270 ha         1 SP0       0.127000
     36 H1          -0.3940     5.5860    -5.4380 ha         1 SP0       0.114000
     37 H2           0.4150     3.2470    -6.1990 h4         1 SP0       0.161000
     38 H12         -4.9740     2.9770     1.8000 ha         1 SP0       0.126000
     39 H13         -6.0890     4.1810     3.6390 ha         1 SP0       0.125000
     40 H15         -3.3710     7.4450     3.1600 ha         1 SP0       0.125000
     41 H16         -2.2490     6.2460     1.3230 ha         1 SP0       0.126000
@<TRIPOS>BOND
     1     1     2 ar  
     2     1     7 ar  
     3     1    29 1   
     4     2     3 1   
     5     2     4 ar  
     6     4     5 ar  
     7     4    30 1   
     8     5     6 ar  
     9     5    31 1   
    10     6     7 ar  
    11     6    32 1   
    12     7     8 1   
    13     8     9 2   
    14     8    10 2   
    15     8    11 1   
    16    11    12 1   
    17    11    33 1   
    18    12    13 2   
    19    12    21 1   
    20    13    14 1   
    21    13    34 1   
    22    14    15 1   
    23    14    20 2   
    24    15    16 2   
    25    15    19 1   
    26    16    17 1   
    27    16    35 1   
    28    17    18 2   
    29    17    36 1   
    30    18    19 1   
    31    18    37 1   
    32    20    21 1   
    33    21    22 1   
    34    22    23 ar  
    35    22    28 ar  
    36    23    24 ar  
    37    23    38 1   
    38    24    25 ar  
    39    24    39 1   
    40    25    26 1   
    41    25    27 ar  
    42    27    28 ar  
    43    27    40 1   
    44    28    41 1   
@<TRIPOS>SUBSTRUCTURE
     1 SP0         1 TEMP              0 ****  ****    0 ROOT
