@<TRIPOS>MOLECULE
molecule
   34    37     1     0     0
SMALL
bcc


@<TRIPOS>ATOM
      1 P            0.0000     0.0000     0.0000 p5         1 SP1       1.206200
      2 S1P         -0.6120     1.5970     0.7410 s          1 SP1      -0.655000
      3 O2P         -0.5290    -0.1150    -1.5170 oh         1 SP1      -0.669400
      4 O5'          1.6060     0.0000     0.0000 os         1 SP1      -0.482200
      5 C5'          2.0620     0.0000     1.3600 c3         1 SP1       0.117400
      6 C4'          1.5020    -1.2360     2.0360 c3         1 SP1       0.041100
      7 O4'          1.9430    -1.4890     3.3610 os         1 SP1      -0.374600
      8 C3'         -0.0330    -1.0500     2.1620 c3         1 SP1       0.038100
      9 O3'         -0.5780    -1.2390     0.8590 os         1 SP1      -0.446200
     10 C2'         -0.3580    -2.1920     3.1490 c3         1 SP1       0.128100
     11 O2'         -0.4370    -3.4470     2.4730 oh         1 SP1      -0.575800
     12 C1'          0.8810    -2.1470     4.0820 c3         1 SP1       0.253800
     13 N9           0.5630    -1.3930     5.2960 na         1 SP1      -0.274000
     14 C8           0.8050    -0.0690     5.5100 cc         1 SP1       0.426700
     15 N7           0.3940     0.2720     6.6980 nd         1 SP1      -0.572100
     16 C5          -0.1400    -0.8080     7.3180 ca         1 SP1      -0.208200
     17 C6          -0.7160    -1.0390     8.5780 ca         1 SP1       0.793200
     18 N6          -0.8430    -0.0140     9.4980 nv         1 SP1      -0.977500
     19 N1          -1.1410    -2.2650     8.8640 nb         1 SP1      -0.833000
     20 C2          -1.0250    -3.2500     7.9920 ca         1 SP1       0.748900
     21 N3          -0.4870    -3.0820     6.8030 nb         1 SP1      -0.806000
     22 C4          -0.0330    -1.8910     6.4280 ca         1 SP1       0.472800
     23 HOP2        -0.7850     0.7380    -1.8260 ho         1 SP1       0.499000
     24 H5'1         3.1450    -0.0300     1.3830 h1         1 SP1       0.107700
     25 H5'2         1.7030     0.8880     1.8670 h1         1 SP1       0.107700
     26 H4'          1.7070    -2.1030     1.4190 h1         1 SP1       0.093700
     27 H3'         -0.2850    -0.0790     2.5710 h1         1 SP1       0.137700
     28 H2'         -1.2660    -1.9790     3.7010 h1         1 SP1       0.090700
     29 HO2'        -1.3110    -3.7930     2.5530 ho         1 SP1       0.428000
     30 H1'          1.1820    -3.1560     4.3370 h2         1 SP1       0.126700
     31 H8           1.2700     0.6010     4.7980 h5         1 SP1       0.087800
     32 HN61        -0.5310     0.9080     9.2660 hn         1 SP1       0.453300
     33 HN62        -1.2500    -0.1930    10.3940 hn         1 SP1       0.453300
     34 H2          -1.3860    -4.2340     8.2670 h5         1 SP1       0.063100
@<TRIPOS>BOND
     1     1     2 2
     2     1     3 1
     3     1     4 1
     4     1     9 1
     5     3    23 1
     6     4     5 1
     7     5     6 1
     8     5    24 1
     9     5    25 1
    10     6     7 1
    11     6     8 1
    12     6    26 1
    13     7    12 1
    14     8     9 1
    15     8    10 1
    16     8    27 1
    17    10    11 1
    18    10    12 1
    19    10    28 1
    20    11    29 1
    21    12    13 1
    22    12    30 1
    23    13    14 1
    24    13    22 1
    25    14    15 2
    26    14    31 1
    27    15    16 1
    28    16    17 ar
    29    16    22 ar
    30    17    18 1
    31    17    19 ar
    32    18    32 1
    33    18    33 1
    34    19    20 ar
    35    20    21 ar
    36    20    34 1
    37    21    22 ar
@<TRIPOS>SUBSTRUCTURE
     1 SP1         1 TEMP              0 ****  ****    0 ROOT
