@<TRIPOS>MOLECULE
molecule
  104   103     1     0     0
SMALL
bcc


@<TRIPOS>ATOM
      1 CMA          0.0000     0.0000     0.0000 c3         1 SP2       0.107700
      2 O1           1.4290     0.0000     0.0000 os         1 SP2      -0.402600
      3 C1           1.8420     0.0000     1.3680 c3         1 SP2       0.133800
      4 CM1          1.3320     1.2670     2.0550 c3         1 SP2      -0.118600
      5 CM2          1.2680    -1.2300     2.0740 c3         1 SP2      -0.118600
      6 C2           3.3700    -0.0390     1.4400 c3         1 SP2      -0.066400
      7 C3           3.9440     1.1910     0.7330 c3         1 SP2      -0.075400
      8 C4           5.4720     1.1520     0.8060 c3         1 SP2      -0.045200
      9 C5           6.0390     2.3630     0.1100 c2         1 SP2      -0.097400
     10 CM3          6.3570     2.3060    -1.3620 c3         1 SP2      -0.056900
     11 C6           6.2580     3.4870     0.7990 ce         1 SP2      -0.162000
     12 C7           6.6840     4.6590     0.1260 ce         1 SP2      -0.113000
     13 C8           7.0080     5.7710     0.8360 cf         1 SP2      -0.142000
     14 C9           7.4300     6.9340     0.1670 cf         1 SP2      -0.062200
     15 CM4          7.5260     6.9460    -1.3370 c3         1 SP2      -0.061900
     16 C10          7.7540     8.0510     0.8810 ce         1 SP2      -0.151000
     17 C11          8.0560     9.2470     0.2120 ce         1 SP2      -0.109000
     18 C12          8.4890    10.3430     0.9240 cf         1 SP2      -0.146000
     19 C13          8.7900    11.5360     0.2570 cf         1 SP2      -0.077200
     20 CM5          8.6410    11.6220    -1.2400 c3         1 SP2      -0.055900
     21 C14          9.2220    12.6320     0.9680 ce         1 SP2      -0.145000
     22 C15          9.6500    13.7820     0.2920 ce         1 SP2      -0.327000
     23 C16         10.1800    14.8380     0.9980 cf         1 SP2      -0.101000
     24 C17         10.2930    14.7630     2.3930 cf         1 SP2      -0.194000
     25 C18         10.8190    15.8100     3.0930 ce         1 SP2      -0.262200
     26 CM6         11.2780    17.0460     2.3660 c3         1 SP2      -0.050900
     27 C19         10.9300    15.7350     4.4920 ce         1 SP2       0.011000
     28 C20         11.5490    16.7310     5.1790 cf         1 SP2      -0.212000
     29 C21         11.5480    16.7210     6.5970 cf         1 SP2      -0.507000
     30 C22         12.0660    17.7520     7.2720 c2         1 SP2      -0.027400
     31 CM7         12.5050    18.9910     6.5360 c3         1 SP2      -0.118900
     32 C23         12.2080    17.6760     8.7710 c3         1 SP2      -0.063200
     33 C24         13.5760    17.0890     9.1240 c3         1 SP2      -0.086200
     34 C25         13.7190    17.0130    10.6210 c2         1 SP2      -0.523200
     35 C26         13.8600    15.8500    11.2060 c2         1 SP2       0.037600
     36 CM8         13.6950    14.5810    10.4110 c3         1 SP2      -0.128900
     37 C27         14.1880    15.7810    12.6750 c3         1 SP2      -0.040200
     38 C28         12.8920    15.7460    13.4870 c3         1 SP2      -0.042200
     39 C29         13.2200    15.6770    14.9570 c2         1 SP2      -0.187200
     40 C30         12.8580    16.6500    15.7550 c2         1 SP2      -0.125400
     41 CMB         13.0180    16.5000    17.2460 c3         1 SP2      -0.053400
     42 CM9         12.2810    17.9190    15.1820 c3         1 SP2      -0.053400
     43 HMA1        -0.3610     0.4480    -0.9180 h1         1 SP2       0.032700
     44 HMA2        -0.3610     0.5710     0.8470 h1         1 SP2       0.032700
     45 HMA3        -0.3610    -1.0190     0.0710 h1         1 SP2       0.032700
     46 HM11         1.2720     2.0710     1.3320 hc         1 SP2       0.042867
     47 HM12         0.3490     1.0810     2.4710 hc         1 SP2       0.042867
     48 HM13         2.0130     1.5460     2.8510 hc         1 SP2       0.042867
     49 HM21         1.7890    -1.3840     3.0110 hc         1 SP2       0.042867
     50 HM22         0.2130    -1.0750     2.2680 hc         1 SP2       0.042867
     51 HM23         1.3950    -2.1010     1.4420 hc         1 SP2       0.042867
     52 H21A         3.7320    -0.9370     0.9540 hc         1 SP2       0.049700
     53 H22          3.6830    -0.0390     2.4770 hc         1 SP2       0.049700
     54 H31          3.6320     1.1910    -0.3040 hc         1 SP2       0.053700
     55 H32          3.5830     2.0890     1.2200 hc         1 SP2       0.053700
     56 H41          5.8340     0.2540     0.3200 hc         1 SP2       0.047200
     57 H42          5.7850     1.1520     1.8430 hc         1 SP2       0.047200
     58 HM31         7.3790     2.6290    -1.5230 hc         1 SP2       0.045033
     59 HM32         6.2390     1.2900    -1.7180 hc         1 SP2       0.045033
     60 HM33         5.6830     2.9590    -1.9030 hc         1 SP2       0.045033
     61 H6           6.0290     3.5260     1.8570 ha         1 SP2       0.129000
     62 H7           6.7520     4.6690    -0.9550 ha         1 SP2       0.133000
     63 H8           6.9400     5.7630     1.9170 ha         1 SP2       0.131000
     64 HM41         6.5690     7.2300    -1.7580 hc         1 SP2       0.046700
     65 HM42         7.7970     5.9580    -1.6890 hc         1 SP2       0.046700
     66 HM43         8.2810     7.6590    -1.6450 hc         1 SP2       0.046700
     67 H10          7.6860     8.0400     1.9620 ha         1 SP2       0.131000
     68 H11          7.9480     9.3080    -0.8640 ha         1 SP2       0.135000
     69 H12          8.5970    10.2820     2.0000 ha         1 SP2       0.129000
     70 HM51         9.3030    10.9050    -1.7110 hc         1 SP2       0.052033
     71 HM52         8.8950    12.6210    -1.5720 hc         1 SP2       0.052033
     72 HM53         7.6160    11.4010    -1.5140 hc         1 SP2       0.052033
     73 H14          9.3280    12.5690     2.0440 ha         1 SP2       0.150000
     74 H15          8.7140    13.7020     0.8320 ha         1 SP2       0.219000
     75 H16          9.3560    14.9790     1.6860 ha         1 SP2       0.231000
     76 H17          9.5200    15.3130     1.8710 ha         1 SP2       0.312000
     77 HM61        10.7180    17.9030     2.7210 hc         1 SP2       0.048367
     78 HM62        11.1130    16.9220     1.3030 hc         1 SP2       0.048367
     79 HM63        12.3340    17.2030     2.5520 hc         1 SP2       0.048367
     80 H19         10.4370    14.9340     5.0300 ha         1 SP2       0.158000
     81 H20         11.9560    17.5820     4.6460 ha         1 SP2       0.095000
     82 H21         12.4010    16.6390     5.9340 ha         1 SP2       0.359000
     83 HM71        13.3540    18.7540     5.9060 hc         1 SP2       0.046367
     84 HM72        12.7870    19.7550     7.2500 hc         1 SP2       0.046367
     85 HM73        11.6900    19.3540     5.9210 hc         1 SP2       0.046367
     86 H231        12.1220    18.6700     9.1930 hc         1 SP2       0.066200
     87 H232        11.4280    17.0430     9.1760 hc         1 SP2       0.066200
     88 H241        13.6620    16.0950     8.7010 hc         1 SP2       0.057700
     89 H242        14.3560    17.7220     8.7180 hc         1 SP2       0.057700
     90 H25         12.7520    16.8830    10.1510 ha         1 SP2       0.340000
     91 HM81        14.4310    14.5530     9.6180 hc         1 SP2       0.051700
     92 HM82        12.7000    14.5510     9.9820 hc         1 SP2       0.051700
     93 HM83        13.8330    13.7260    11.0620 hc         1 SP2       0.051700
     94 H271        14.7640    14.8850    12.8750 hc         1 SP2       0.059700
     95 H272        14.7670    16.6520    12.9570 hc         1 SP2       0.059700
     96 H281        12.3160    16.6410    13.2870 hc         1 SP2       0.051200
     97 H282        12.3140    14.8740    13.2050 hc         1 SP2       0.051200
     98 H29         13.6350    14.7660    15.3720 ha         1 SP2       0.121000
     99 HMB1        12.2380    17.0570    17.7500 hc         1 SP2       0.041700
    100 HMB2        12.9450    15.4530    17.5140 hc         1 SP2       0.041700
    101 HMB3        13.9860    16.8830    17.5460 hc         1 SP2       0.041700
    102 HM91        12.1400    18.6420    15.9760 hc         1 SP2       0.041700
    103 HM92        11.3270    17.7030    14.7170 hc         1 SP2       0.041700
    104 HM93        12.9610    18.3230    14.4420 hc         1 SP2       0.041700
@<TRIPOS>BOND
     1     1     2 1
     2     1    43 1
     3     1    44 1
     4     1    45 1
     5     2     3 1
     6     3     4 1
     7     3     5 1
     8     3     6 1
     9     4    46 1
    10     4    47 1
    11     4    48 1
    12     5    49 1
    13     5    50 1
    14     5    51 1
    15     6     7 1
    16     6    52 1
    17     6    53 1
    18     7     8 1
    19     7    54 1
    20     7    55 1
    21     8     9 1
    22     8    56 1
    23     8    57 1
    24     9    10 1
    25     9    11 2
    26    10    58 1
    27    10    59 1
    28    10    60 1
    29    11    12 1
    30    11    61 1
    31    12    13 2
    32    12    62 1
    33    13    14 1
    34    13    63 1
    35    14    15 1
    36    14    16 2
    37    15    64 1
    38    15    65 1
    39    15    66 1
    40    16    17 1
    41    16    67 1
    42    17    18 2
    43    17    68 1
    44    18    19 1
    45    18    69 1
    46    19    20 1
    47    19    21 2
    48    20    70 1
    49    20    71 1
    50    20    72 1
    51    21    22 1
    52    21    73 1
    53    22    23 2
    54    22    74 1
    55    23    24 1
    56    23    75 1
    57    24    25 2
    58    24    76 1
    59    25    26 1
    60    25    27 1
    61    26    77 1
    62    26    78 1
    63    26    79 1
    64    27    28 2
    65    27    80 1
    66    28    29 1
    67    28    81 1
    68    29    30 2
    69    29    82 1
    70    30    31 1
    71    30    32 1
    72    31    83 1
    73    31    84 1
    74    31    85 1
    75    32    33 1
    76    32    86 1
    77    32    87 1
    78    33    34 1
    79    33    88 1
    80    33    89 1
    81    34    35 2
    82    34    90 1
    83    35    36 1
    84    35    37 1
    85    36    91 1
    86    36    92 1
    87    36    93 1
    88    37    38 1
    89    37    94 1
    90    37    95 1
    91    38    39 1
    92    38    96 1
    93    38    97 1
    94    39    40 2
    95    39    98 1
    96    40    41 1
    97    40    42 1
    98    41    99 1
    99    41   100 1
   100    41   101 1
   101    42   102 1
   102    42   103 1
   103    42   104 1
@<TRIPOS>SUBSTRUCTURE
     1 SP2         1 TEMP              0 ****  ****    0 ROOT
