@<TRIPOS>MOLECULE
molecule
   47    50     1     0     0
SMALL
bcc


@<TRIPOS>ATOM
      1 C30          0.0000     0.0000     0.0000 ca         1 SP3      -0.113000
      2 C31          1.3810     0.0000     0.0000 ca         1 SP3      -0.150500
      3 C32          2.0740     0.0000     1.1980 ca         1 SP3       0.133900
      4 F35          3.4250    -0.0050     1.1970 f          1 SP3      -0.132900
      5 C33          1.3840     0.0080     2.3990 ca         1 SP3      -0.150500
      6 C34          0.0030     0.0130     2.4030 ca         1 SP3      -0.113000
      7 C29         -0.6940     0.0090     1.2030 ca         1 SP3       0.014800
      8 N8          -2.0950     0.0140     1.2050 na         1 SP3       0.133300
      9 N7          -2.9190    -0.7080     2.0770 nc         1 SP3      -0.488800
     10 C6          -4.1750    -0.4490     1.7710 cd         1 SP3       0.476800
     11 C3          -5.3660    -1.0060     2.4480 cd         1 SP3      -0.046600
     12 C2          -5.4300    -1.8840     3.4970 cc         1 SP3      -0.141000
     13 C1          -6.6680    -2.2630     3.9680 cc         1 SP3      -0.181000
     14 C5          -7.7830    -1.7650     3.3730 cd         1 SP3      -0.032100
     15 S4          -7.0940    -0.7150     2.1050 ss         1 SP3      -0.176800
     16 C10         -4.1850     0.4520     0.6870 cd         1 SP3      -0.383300
     17 C9          -2.8950     0.7250     0.3610 cc         1 SP3       0.182300
     18 N11         -2.4660     1.5710    -0.6570 nu         1 SP3      -0.747500
     19 S12         -3.5710     2.4410    -1.5300 sy         1 SP3       1.428200
     20 O13         -4.5720     1.5120    -1.9220 o          1 SP3      -0.607800
     21 O14         -2.8110     3.2530    -2.4150 o          1 SP3      -0.607800
     22 C15         -4.3610     3.5560    -0.4170 ca         1 SP3      -0.329500
     23 C16         -3.7750     4.7730    -0.1250 ca         1 SP3       0.047500
     24 C20         -5.5710     3.2150     0.1590 ca         1 SP3       0.047500
     25 C19         -6.1880     4.0870     1.0360 ca         1 SP3      -0.206800
     26 C25         -7.5040     3.7130     1.6690 c3         1 SP3       0.677700
     27 F28         -7.9290     4.7500     2.5070 f          1 SP3      -0.215967
     28 F26         -8.4590     3.5020     0.6690 f          1 SP3      -0.215967
     29 F27         -7.3450     2.5430     2.4180 f          1 SP3      -0.215967
     30 C18         -5.6020     5.3040     1.3280 ca         1 SP3       0.016000
     31 C17         -4.3940     5.6470     0.7480 ca         1 SP3      -0.206800
     32 C21         -3.7550     6.9730     1.0670 c3         1 SP3       0.677700
     33 F24         -4.2000     7.9370     0.1560 f          1 SP3      -0.215967
     34 F22         -4.1070     7.3610     2.3640 f          1 SP3      -0.215967
     35 F23         -2.3640     6.8540     0.9780 f          1 SP3      -0.215967
     36 H30         -0.5420    -0.0020    -0.9380 ha         1 SP3       0.154500
     37 H31          1.9220    -0.0070    -0.9380 ha         1 SP3       0.155500
     38 H33          1.9290     0.0100     3.3360 ha         1 SP3       0.155500
     39 H34         -0.5360     0.0190     3.3430 ha         1 SP3       0.154500
     40 H2          -4.5250    -2.2660     3.9530 ha         1 SP3       0.155000
     41 H1          -6.7510    -2.9540     4.7980 ha         1 SP3       0.146000
     42 H5          -8.8230    -1.9540     3.6090 h4         1 SP3       0.190000
     43 H10         -5.0650     0.8580     0.2040 ha         1 SP3       0.176000
     44 H11         -1.4880     1.6730    -0.8440 hn         1 SP3       0.472800
     45 H16         -2.8290     5.0410    -0.5800 ha         1 SP3       0.172500
     46 H20         -6.0640     2.2940    -0.1250 ha         1 SP3       0.172500
     47 H18         -6.0860     5.9880     2.0140 ha         1 SP3       0.172000
@<TRIPOS>BOND
     1     1     2 ar
     2     1     7 ar
     3     1    36 1
     4     2     3 ar
     5     2    37 1
     6     3     4 1
     7     3     5 ar
     8     5     6 ar
     9     5    38 1
    10     6     7 ar
    11     6    39 1
    12     7     8 1
    13     8     9 1
    14     8    17 1
    15     9    10 2
    16    10    11 1
    17    10    16 1
    18    11    12 2
    19    11    15 1
    20    12    13 1
    21    12    40 1
    22    13    14 2
    23    13    41 1
    24    14    15 1
    25    14    42 1
    26    16    17 2
    27    16    43 1
    28    17    18 1
    29    18    19 1
    30    18    44 1
    31    19    20 2
    32    19    21 2
    33    19    22 1
    34    22    23 ar
    35    22    24 ar
    36    23    31 ar
    37    23    45 1
    38    24    25 ar
    39    24    46 1
    40    25    26 1
    41    25    30 ar
    42    26    27 1
    43    26    28 1
    44    26    29 1
    45    30    31 ar
    46    30    47 1
    47    31    32 1
    48    32    33 1
    49    32    34 1
    50    32    35 1
@<TRIPOS>SUBSTRUCTURE
     1 SP3         1 TEMP              0 ****  ****    0 ROOT
