@<TRIPOS>MOLECULE
molecule
   46    45     1     0     0
SMALL
bcc


@<TRIPOS>ATOM
      1 CAB          0.0000     0.0000     0.0000 c3         1 SP5      -0.171100
      2 CAC          1.5070     0.0000     0.0000 c          1 SP5       0.656100
      3 OAA          2.1140     0.0000     1.0490 o          1 SP5      -0.606100
      4 NAD          2.1800     0.0010    -1.1680 ns         1 SP5      -0.593900
      5 CAE          3.6460     0.0010    -1.1690 c3         1 SP5       0.113000
      6 CAF          4.1540     0.0020    -2.6120 c3         1 SP5      -0.102400
      7 CAG          5.6840     0.0010    -2.6130 c3         1 SP5       0.160800
      8 NAH          6.1730     0.0020    -3.9980 n7         1 SP5      -0.819200
      9 CAI          7.6410     0.0020    -4.0380 c3         1 SP5       0.159800
     10 CAJ          8.1120     0.0020    -5.4940 c3         1 SP5      -0.082400
     11 CAK          9.6420     0.0020    -5.5360 c3         1 SP5      -0.082400
     12 CAL         10.1120     0.0030    -6.9910 c3         1 SP5       0.156800
     13 NAM         11.5810     0.0030    -7.0310 n7         1 SP5      -0.814200
     14 CAN         12.0690     0.0040    -8.4160 c3         1 SP5       0.167800
     15 CAO         13.5990     0.0040    -8.4170 c3         1 SP5      -0.115400
     16 CAP         14.1090     0.0040    -9.8610 c3         1 SP5       0.089800
     17 NAQ         15.5770     0.0040    -9.8610 nz         1 SP5      -0.809600
     18 HAB         -0.3610     0.8790    -0.5190 hc         1 SP5       0.061700
     19 HABA        -0.3610    -0.8890    -0.5020 hc         1 SP5       0.061700
     20 HABB        -0.3610     0.0100     1.0210 hc         1 SP5       0.061700
     21 HNAD         1.6790    -0.0170    -2.0340 hn         1 SP5       0.312500
     22 HAE          4.0070     0.8850    -0.6580 h1         1 SP5       0.053700
     23 HAEA         4.0070    -0.8840    -0.6590 h1         1 SP5       0.053700
     24 HAF          3.7920    -0.8820    -3.1230 hc         1 SP5       0.052700
     25 HAFA         3.7930     0.8870    -3.1220 hc         1 SP5       0.052700
     26 HAG          6.0450    -0.8850    -2.1030 h1         1 SP5       0.038200
     27 HAGA         6.0460     0.8850    -2.1010 h1         1 SP5       0.038200
     28 HNAH         5.8270     0.8120    -4.4730 hn         1 SP5       0.351800
     29 HAI          8.0160    -0.8830    -3.5380 h1         1 SP5       0.034700
     30 HAIA         8.0170     0.8860    -3.5370 h1         1 SP5       0.034700
     31 HAJ          7.7370     0.8870    -5.9940 hc         1 SP5       0.050700
     32 HAJA         7.7370    -0.8820    -5.9950 hc         1 SP5       0.050700
     33 HAK         10.0170     0.8860    -5.0340 hc         1 SP5       0.052200
     34 HAKA        10.0170    -0.8830    -5.0350 hc         1 SP5       0.052200
     35 HAL          9.7370     0.8870    -7.4910 h1         1 SP5       0.041200
     36 HALA         9.7370    -0.8820    -7.4920 h1         1 SP5       0.041200
     37 HNAM        11.9270     0.8130    -6.5550 hn         1 SP5       0.357800
     38 HAN         11.7080    -0.8810    -8.9270 h1         1 SP5       0.046200
     39 HANA        11.7080     0.8880    -8.9270 h1         1 SP5       0.046200
     40 HAO         13.9600    -0.8810    -7.9060 hc         1 SP5       0.072200
     41 HAOA        13.9600     0.8880    -7.9070 hc         1 SP5       0.072200
     42 HAP         13.7470    -0.8810   -10.3710 hx         1 SP5       0.112700
     43 HAPA        13.7480     0.8880   -10.3710 hx         1 SP5       0.112700
     44 HNAQ        15.9110    -0.7880    -9.3480 hn         1 SP5       0.458133
     45 HNAA        15.9110     0.8440    -9.4320 hn         1 SP5       0.458133
     46 HAQ3        15.9100    -0.0450   -10.8030 hn         1 SP5       0.458133
@<TRIPOS>BOND
     1     1     2 1
     2     2     3 2
     3     2     4 1
     4     4     5 1
     5     5     6 1
     6     6     7 1
     7     7     8 1
     8     8     9 1
     9     9    10 1
    10    10    11 1
    11    11    12 1
    12    12    13 1
    13    13    14 1
    14    14    15 1
    15    15    16 1
    16    16    17 1
    17     1    18 1
    18     1    19 1
    19     1    20 1
    20     4    21 1
    21     5    22 1
    22     5    23 1
    23     6    24 1
    24     6    25 1
    25     7    26 1
    26     7    27 1
    27     8    28 1
    28     9    29 1
    29     9    30 1
    30    10    31 1
    31    10    32 1
    32    11    33 1
    33    11    34 1
    34    12    35 1
    35    12    36 1
    36    13    37 1
    37    14    38 1
    38    14    39 1
    39    15    40 1
    40    15    41 1
    41    16    42 1
    42    16    43 1
    43    17    44 1
    44    17    45 1
    45    46    17 1
@<TRIPOS>SUBSTRUCTURE
     1 SP5         1 TEMP              0 ****  ****    0 ROOT
