@<TRIPOS>MOLECULE
SP5
   46    45     1     0     0
SMALL
bcc


@<TRIPOS>ATOM
      1 CAB          0.0000     0.0000     0.0000 c3         1 SP5      -0.066100
      2 CAC          1.5070     0.0000     0.0000 c          1 SP5       0.571100
      3 OAA          2.1140     0.0000     1.0490 o          1 SP5      -0.644100
      4 NAD          2.1800     0.0010    -1.1680 ns         1 SP5      -0.210900
      5 CAE          3.6460     0.0010    -1.1690 c3         1 SP5       0.054000
      6 CAF          4.1540     0.0020    -2.6120 c3         1 SP5      -0.043400
      7 CAG          5.6840     0.0010    -2.6130 c3         1 SP5       0.149800
      8 NAH          6.1730     0.0020    -3.9980 n7         1 SP5      -0.586200
      9 CAI          7.6410     0.0020    -4.0380 c3         1 SP5       0.145800
     10 CAJ          8.1120     0.0020    -5.4940 c3         1 SP5      -0.027400
     11 CAK          9.6420     0.0020    -5.5360 c3         1 SP5      -0.026400
     12 CAL         10.1120     0.0030    -6.9910 c3         1 SP5       0.145800
     13 NAM         11.5810     0.0030    -7.0310 n7         1 SP5      -0.579200
     14 CAN         12.0690     0.0040    -8.4160 c3         1 SP5       0.157800
     15 CAO         13.5990     0.0040    -8.4170 c3         1 SP5      -0.039400
     16 CAP         14.1090     0.0040    -9.8610 c3         1 SP5      -0.052200
     17 NAQ         15.5770     0.0040    -9.8610 nz         1 SP5       0.088400
     18 HAB         -0.3610     0.8790    -0.5190 hc         1 SP5       0.023367
     19 HABA        -0.3610    -0.8890    -0.5020 hc         1 SP5       0.023367
     20 HABB        -0.3610     0.0100     1.0210 hc         1 SP5       0.023367
     21 HNAD         1.6790    -0.0170    -2.0340 hn         1 SP5       0.174500
     22 HAE          4.0070     0.8850    -0.6580 h1         1 SP5       0.026700
     23 HAEA         4.0070    -0.8840    -0.6590 h1         1 SP5       0.026700
     24 HAF          3.7920    -0.8820    -3.1230 hc         1 SP5       0.021700
     25 HAFA         3.7930     0.8870    -3.1220 hc         1 SP5       0.021700
     26 HAG          6.0450    -0.8850    -2.1030 h1         1 SP5       0.011700
     27 HAGA         6.0460     0.8850    -2.1010 h1         1 SP5       0.011700
     28 HNAH         5.8270     0.8120    -4.4730 hn         1 SP5       0.252800
     29 HAI          8.0160    -0.8830    -3.5380 h1         1 SP5       0.009200
     30 HAIA         8.0170     0.8860    -3.5370 h1         1 SP5       0.009200
     31 HAJ          7.7370     0.8870    -5.9940 hc         1 SP5       0.021200
     32 HAJA         7.7370    -0.8820    -5.9950 hc         1 SP5       0.021200
     33 HAK         10.0170     0.8860    -5.0340 hc         1 SP5       0.022700
     34 HAKA        10.0170    -0.8830    -5.0350 hc         1 SP5       0.022700
     35 HAL          9.7370     0.8870    -7.4910 h1         1 SP5       0.013700
     36 HALA         9.7370    -0.8820    -7.4920 h1         1 SP5       0.013700
     37 HNAM        11.9270     0.8130    -6.5550 hn         1 SP5       0.256800
     38 HAN         11.7080    -0.8810    -8.9270 h1         1 SP5       0.017700
     39 HANA        11.7080     0.8880    -8.9270 h1         1 SP5       0.017700
     40 HAO         13.9600    -0.8810    -7.9060 hc         1 SP5       0.038700
     41 HAOA        13.9600     0.8880    -7.9070 hc         1 SP5       0.038700
     42 HAP         13.7470    -0.8810   -10.3710 hx         1 SP5       0.086200
     43 HAPA        13.7480     0.8880   -10.3710 hx         1 SP5       0.086200
     44 HNAQ        15.9110    -0.7880    -9.3480 hn         1 SP5       0.223467
     45 HNAA        15.9110     0.8440    -9.4320 hn         1 SP5       0.223467
     46 HAQ3        15.9100    -0.0450   -10.8030 hn         1 SP5       0.223467
@<TRIPOS>BOND
     1     1     2 1   
     2     1    18 1   
     3     1    19 1   
     4     1    20 1   
     5     2     3 2   
     6     2     4 1   
     7     4     5 1   
     8     4    21 1   
     9     5     6 1   
    10     5    22 1   
    11     5    23 1   
    12     6     7 1   
    13     6    24 1   
    14     6    25 1   
    15     7     8 1   
    16     7    26 1   
    17     7    27 1   
    18     8     9 1   
    19     8    28 1   
    20     9    10 1   
    21     9    29 1   
    22     9    30 1   
    23    10    11 1   
    24    10    31 1   
    25    10    32 1   
    26    11    12 1   
    27    11    33 1   
    28    11    34 1   
    29    12    13 1   
    30    12    35 1   
    31    12    36 1   
    32    13    14 1   
    33    13    37 1   
    34    14    15 1   
    35    14    38 1   
    36    14    39 1   
    37    15    16 1   
    38    15    40 1   
    39    15    41 1   
    40    16    17 1   
    41    16    42 1   
    42    16    43 1   
    43    17    44 1   
    44    17    45 1   
    45    17    46 1   
@<TRIPOS>SUBSTRUCTURE
     1 SP5         1 TEMP              0 ****  ****    0 ROOT
