@<TRIPOS>MOLECULE
SP6
   44    47     1     0     0
SMALL
bcc


@<TRIPOS>ATOM
      1 N1         -0.0020    0.0420    0.0470 n         1 SP6     -0.128200
      2 C4          3.4460   -0.0250    1.5090 c3        1 SP6      0.139300
      3 C5          1.4220    0.0290    0.1320 c         1 SP6      0.721300
      4 C6         -0.7490    0.0290   -1.1300 cc        1 SP6      0.050700
      5 C7         -3.1160    0.0260   -1.9420 c         1 SP6      0.684700
      6 C8         -2.1040    0.0350   -0.9010 cd        1 SP6     -0.177700
      7 C10         5.0740   -3.9940    1.6160 ca        1 SP6     -0.118000
      8 C13         4.9340   -3.3310    0.3970 ca        1 SP6     -0.137500
      9 C15         4.3890   -2.0480    0.3570 ca        1 SP6     -0.106000
     10 C17         4.1190   -2.0920    2.7630 ca        1 SP6     -0.106000
     11 C20        -2.7560   -0.0050   -5.5550 ca        1 SP6     -0.102300
     12 C21         3.9890   -1.4230    1.5420 ca        1 SP6     -0.128300
     13 O3         -4.3440    0.0290   -1.8170 o         1 SP6     -0.533000
     14 O4         -2.5870    0.0130   -3.2050 os        1 SP6     -0.433900
     15 C11        -3.5430    0.0020   -4.2890 c3        1 SP6      0.189700
     16 C16        -2.3890    1.2010   -6.1610 ca        1 SP6     -0.104000
     17 C18        -1.6800    1.1920   -7.3620 ca        1 SP6     -0.134000
     18 C14        -2.4010   -1.2190   -6.1540 ca        1 SP6     -0.104000
     19 C12        -1.6930   -1.2240   -7.3550 ca        1 SP6     -0.134000
     20 C9         -1.3330   -0.0200   -7.9600 ca        1 SP6     -0.116000
     21 C3         -0.8130    0.0560    1.2070 cc        1 SP6      0.121600
     22 S1         -2.4770    0.0550    0.7770 ss        1 SP6     -0.012800
     23 C2         -0.2510    0.0660    2.4440 cd        1 SP6     -0.302200
     24 C1          1.2070    0.0510    2.5990 c         1 SP6      0.723700
     25 O1          1.7750    0.0510    3.7030 o         1 SP6     -0.603500
     26 O2          2.0890    0.0210   -0.9220 o         1 SP6     -0.616500
     27 N6          1.9950    0.0520    1.4140 n         1 SP6     -0.479400
     28 C19         4.6640   -3.3750    2.7980 ca        1 SP6     -0.137500
     29 H41         3.8820    0.5260    0.6250 h1        1 SP6      0.085200
     30 H42         3.7420    0.5130    2.4580 h1        1 SP6      0.085200
     31 H61        -0.2260    0.0150   -2.1010 h4        1 SP6      0.228000
     32 H10         5.5050   -5.0050    1.6460 ha        1 SP6      0.132000
     33 H13         5.2510   -3.8200   -0.5360 ha        1 SP6      0.133500
     34 H15         4.2640   -1.5240   -0.6050 ha        1 SP6      0.149500
     35 H17         3.7810   -1.6010    3.6910 ha        1 SP6      0.149500
     36 H111       -4.1880    0.9170   -4.2020 h1        1 SP6      0.062700
     37 H112       -4.1830   -0.9140   -4.1870 h1        1 SP6      0.062700
     38 H16        -2.6590    2.1560   -5.6880 ha        1 SP6      0.136000
     39 H18        -1.3940    2.1420   -7.8370 ha        1 SP6      0.135000
     40 H14        -2.6820   -2.1690   -5.6750 ha        1 SP6      0.136000
     41 H12        -1.4170   -2.1800   -7.8240 ha        1 SP6      0.135000
     42 H9         -0.7740   -0.0260   -8.9070 ha        1 SP6      0.134000
     43 H2         -0.8400    0.0780    3.3700 ha        1 SP6      0.188000
     44 H19         4.7680   -3.9000    3.7590 ha        1 SP6      0.133500
@<TRIPOS>BOND
     1    1    3 1   
     2    1    4 1   
     3    1   21 1   
     4    2   12 1   
     5    2   27 1   
     6    2   29 1   
     7    2   30 1   
     8    3   26 2   
     9    3   27 1   
    10    4    6 2   
    11    4   31 1   
    12    5    6 1   
    13    5   13 2   
    14    5   14 1   
    15    6   22 1   
    16    7    8 ar  
    17    7   28 ar  
    18    7   32 1   
    19    8    9 ar  
    20    8   33 1   
    21    9   12 ar  
    22    9   34 1   
    23   10   12 ar  
    24   10   28 ar  
    25   10   35 1   
    26   11   15 1   
    27   11   16 ar  
    28   11   18 ar  
    29   14   15 1   
    30   15   36 1   
    31   15   37 1   
    32   16   17 ar  
    33   16   38 1   
    34   17   20 ar  
    35   17   39 1   
    36   18   19 ar  
    37   18   40 1   
    38   19   20 ar  
    39   19   41 1   
    40   20   42 1   
    41   21   22 1   
    42   21   23 2   
    43   23   24 1   
    44   23   43 1   
    45   24   25 2   
    46   24   27 1   
    47   28   44 1   
@<TRIPOS>SUBSTRUCTURE
     1 SP6         1 TEMP              0 ****  ****    0 ROOT
