@<TRIPOS>MOLECULE
molecule
   38    37     1     0     0
SMALL
bcc


@<TRIPOS>ATOM
      1 CAC          0.0000     0.0000     0.0000 c3         1 SP7      -0.171100
      2 CAD          1.5070     0.0000     0.0000 c          1 SP7       0.655100
      3 OAA          2.1130     0.0000     1.0500 o          1 SP7      -0.601100
      4 NAE          2.1820    -0.0010    -1.1670 ns         1 SP7      -0.594900
      5 CAF          3.6470    -0.0000    -1.1660 c3         1 SP7       0.113700
      6 CAB          4.1570    -1.4380    -1.0400 c3         1 SP7      -0.108100
      7 CAG          4.1580     0.6080    -2.4740 c3         1 SP7      -0.094400
      8 CAH          3.7530     2.0830    -2.5420 c3         1 SP7       0.155800
      9 NAI          4.2430     2.6680    -3.7970 n7         1 SP7      -0.817200
     10 CAJ          3.8720     4.0850    -3.8970 c3         1 SP7       0.162800
     11 CAK          4.3990     4.6580    -5.2140 c3         1 SP7      -0.077400
     12 CAL          4.0120     6.1350    -5.3190 c3         1 SP7      -0.112400
     13 CAM          4.5390     6.7080    -6.6360 c3         1 SP7       0.090800
     14 NAN          4.1690     8.1250    -6.7360 nz         1 SP7      -0.810600
     15 HAC         -0.3610    -0.8120    -0.6200 hc         1 SP7       0.062033
     16 HACA        -0.3610     0.9430    -0.3930 hc         1 SP7       0.062033
     17 HACB        -0.3610    -0.1310     1.0130 hc         1 SP7       0.062033
     18 HNAE         1.6830    -0.0380    -2.0330 hn         1 SP7       0.307500
     19 HAF          4.0080     0.5860    -0.3290 h1         1 SP7       0.083700
     20 HAB          3.7080    -2.0500    -1.8130 hc         1 SP7       0.047367
     21 HABA         5.2340    -1.4500    -1.1490 hc         1 SP7       0.047367
     22 HABB         3.8880    -1.8320    -0.0670 hc         1 SP7       0.047367
     23 HAG          5.2370     0.5280    -2.5120 hc         1 SP7       0.057200
     24 HAGA         3.7260     0.0760    -3.3120 hc         1 SP7       0.057200
     25 HAH          2.6730     2.1630    -2.5030 h1         1 SP7       0.041200
     26 HAHA         4.1840     2.6150    -1.7030 h1         1 SP7       0.041200
     27 HNAI         3.8570     2.1660    -4.5720 hn         1 SP7       0.354800
     28 HAJ          4.3040     4.6310    -3.0670 h1         1 SP7       0.038700
     29 HAJA         2.7930     4.1790    -3.8680 h1         1 SP7       0.038700
     30 HAK          3.9660     4.1120    -6.0440 hc         1 SP7       0.064700
     31 HAKA         5.4770     4.5640    -5.2430 hc         1 SP7       0.064700
     32 HAL          2.9330     6.2290    -5.2900 hc         1 SP7       0.065700
     33 HALA         4.4440     6.6810    -4.4890 hc         1 SP7       0.065700
     34 HAM          5.6180     6.6130    -6.6660 hx         1 SP7       0.114200
     35 HAMA         4.1060     6.1620    -7.4660 hx         1 SP7       0.114200
     36 HNAN         4.5670     8.6290    -5.9680 hn         1 SP7       0.457467
     37 HNAA         3.1720     8.2130    -6.7110 hn         1 SP7       0.457467
     38 HAN3         4.5150     8.5010    -7.5970 hn         1 SP7       0.457467
@<TRIPOS>BOND
     1     1     2 1
     2     2     3 2
     3     2     4 1
     4     4     5 1
     5     5     6 1
     6     5     7 1
     7     7     8 1
     8     8     9 1
     9     9    10 1
    10    10    11 1
    11    11    12 1
    12    12    13 1
    13    13    14 1
    14     1    15 1
    15     1    16 1
    16     1    17 1
    17     4    18 1
    18     5    19 1
    19     6    20 1
    20     6    21 1
    21     6    22 1
    22     7    23 1
    23     7    24 1
    24     8    25 1
    25     8    26 1
    26     9    27 1
    27    10    28 1
    28    10    29 1
    29    11    30 1
    30    11    31 1
    31    12    32 1
    32    12    33 1
    33    13    34 1
    34    13    35 1
    35    14    36 1
    36    14    37 1
    37    38    14 1
@<TRIPOS>SUBSTRUCTURE
     1 SP7         1 TEMP              0 ****  ****    0 ROOT
