@<TRIPOS>MOLECULE
SP8
   45    45     1     0     0
SMALL
bcc


@<TRIPOS>ATOM
      1 CAE          0.0000     0.0000     0.0000 ca         1 SP8      -0.061500
      2 CAD          1.3800     0.0000     0.0000 ca         1 SP8      -0.109500
      3 CAC          2.0740     0.0000     1.1960 ca         1 SP8      -0.073000
      4 CAR          1.3920    -0.0000     2.4010 ca         1 SP8      -0.109500
      5 CAS          0.0120    -0.0010     2.4140 ca         1 SP8      -0.061500
      6 CAF         -0.6940    -0.0010     1.2110 ca         1 SP8      -0.162600
      7 CAG         -2.1740     0.0000     1.2190 c          1 SP8       0.600700
      8 OAA         -2.7870     0.0010     0.1690 o          1 SP8      -0.642100
      9 NAH         -2.8410     0.0000     2.3890 ns         1 SP8      -0.209900
     10 CAI         -4.3060     0.0000     2.3970 c3         1 SP8       0.021700
     11 CAB         -4.8170    -1.4370     2.2730 c3         1 SP8      -0.015100
     12 CAJ         -4.8090     0.6100     3.7080 c3         1 SP8      -0.041400
     13 CAK         -4.4040     2.0830     3.7730 c3         1 SP8       0.139800
     14 NAL         -4.8870     2.6680     5.0320 n7         1 SP8      -0.580200
     15 CAM         -4.5150     4.0860     5.1300 c3         1 SP8       0.149800
     16 CAN         -5.0340     4.6580     6.4500 c3         1 SP8      -0.019400
     17 CAO         -4.6470     6.1350     6.5530 c3         1 SP8      -0.034400
     18 CAP         -5.1660     6.7080     7.8730 c3         1 SP8      -0.053200
     19 NAQ         -4.7940     8.1250     7.9710 nz         1 SP8       0.086400
     20 HAE         -0.5420     0.0760    -0.9350 ha         1 SP8       0.112500
     21 HAD          1.9200     0.0010    -0.9390 ha         1 SP8       0.107500
     22 HAC          3.1570     0.0000     1.1910 ha         1 SP8       0.106000
     23 HAR          1.9420    -0.0010     3.3340 ha         1 SP8       0.107500
     24 HAS         -0.5200    -0.0740     3.3550 ha         1 SP8       0.112500
     25 HNAH        -2.3360    -0.0300     3.2530 hn         1 SP8       0.178500
     26 HAI         -4.6710     0.5860     1.5630 h1         1 SP8       0.060700
     27 HAB         -5.8930    -1.4500     2.4010 hc         1 SP8       0.015700
     28 HABA        -4.3560    -2.0520     3.0360 hc         1 SP8       0.015700
     29 HABB        -4.5650    -1.8270     1.2940 hc         1 SP8       0.015700
     30 HAJ         -5.8880     0.5300     3.7520 hc         1 SP8       0.029200
     31 HAJA        -4.3730     0.0770     4.5440 hc         1 SP8       0.029200
     32 HAK         -3.3240     2.1630     3.7280 h1         1 SP8       0.014200
     33 HAKA        -4.8400     2.6150     2.9360 h1         1 SP8       0.014200
     34 HNAL        -4.4960     2.1660     5.8050 hn         1 SP8       0.254800
     35 HAM         -3.4360     4.1790     5.0950 h1         1 SP8       0.011700
     36 HAMA        -4.9520     4.6320     4.3020 h1         1 SP8       0.011700
     37 HAN         -6.1130     4.5640     6.4850 hc         1 SP8       0.032700
     38 HANA        -4.5970     4.1120     7.2770 hc         1 SP8       0.032700
     39 HAO         -3.5680     6.2290     6.5180 hc         1 SP8       0.034200
     40 HAOA        -5.0840     6.6820     5.7260 hc         1 SP8       0.034200
     41 HAP         -4.7290     6.1620     8.7000 hx         1 SP8       0.086700
     42 HAPA        -6.2440     6.6140     7.9080 hx         1 SP8       0.086700
     43 HNAQ        -3.7970     8.2120     7.9410 hn         1 SP8       0.223800
     44 HNAA        -5.1360     8.5010     8.8330 hn         1 SP8       0.223800
     45 HAQ3        -5.1960     8.6290     7.2050 hn         1 SP8       0.223800
@<TRIPOS>BOND
     1     1     2 ar  
     2     1     6 ar  
     3     1    20 1   
     4     2     3 ar  
     5     2    21 1   
     6     3     4 ar  
     7     3    22 1   
     8     4     5 ar  
     9     4    23 1   
    10     5     6 ar  
    11     5    24 1   
    12     6     7 1   
    13     7     8 2   
    14     7     9 1   
    15     9    10 1   
    16     9    25 1   
    17    10    11 1   
    18    10    12 1   
    19    10    26 1   
    20    11    27 1   
    21    11    28 1   
    22    11    29 1   
    23    12    13 1   
    24    12    30 1   
    25    12    31 1   
    26    13    14 1   
    27    13    32 1   
    28    13    33 1   
    29    14    15 1   
    30    14    34 1   
    31    15    16 1   
    32    15    35 1   
    33    15    36 1   
    34    16    17 1   
    35    16    37 1   
    36    16    38 1   
    37    17    18 1   
    38    17    39 1   
    39    17    40 1   
    40    18    19 1   
    41    18    41 1   
    42    18    42 1   
    43    19    43 1   
    44    19    44 1   
    45    19    45 1   
@<TRIPOS>SUBSTRUCTURE
     1 SP8         1 TEMP              0 ****  ****    0 ROOT
