@<TRIPOS>MOLECULE
molecule
   45    45     1     0     0
SMALL
bcc


@<TRIPOS>ATOM
      1 CAE          0.0000     0.0000     0.0000 ca         1 SP8      -0.088500
      2 CAD          1.3800     0.0000     0.0000 ca         1 SP8      -0.136000
      3 CAC          2.0740     0.0000     1.1960 ca         1 SP8      -0.102000
      4 CAR          1.3920    -0.0000     2.4010 ca         1 SP8      -0.136000
      5 CAS          0.0120    -0.0010     2.4140 ca         1 SP8      -0.088500
      6 CAF         -0.6940    -0.0010     1.2110 ca         1 SP8      -0.151600
      7 CAG         -2.1740     0.0000     1.2190 c          1 SP8       0.673700
      8 OAA         -2.7870     0.0010     0.1690 o          1 SP8      -0.603100
      9 NAH         -2.8410     0.0000     2.3890 ns         1 SP8      -0.588900
     10 CAI         -4.3060     0.0000     2.3970 c3         1 SP8       0.115700
     11 CAB         -4.8170    -1.4370     2.2730 c3         1 SP8      -0.108100
     12 CAJ         -4.8090     0.6100     3.7080 c3         1 SP8      -0.095400
     13 CAK         -4.4040     2.0830     3.7730 c3         1 SP8       0.154800
     14 NAL         -4.8870     2.6680     5.0320 n7         1 SP8      -0.817200
     15 CAM         -4.5150     4.0860     5.1300 c3         1 SP8       0.162800
     16 CAN         -5.0340     4.6580     6.4500 c3         1 SP8      -0.077400
     17 CAO         -4.6470     6.1350     6.5530 c3         1 SP8      -0.112400
     18 CAP         -5.1660     6.7080     7.8730 c3         1 SP8       0.090800
     19 NAQ         -4.7940     8.1250     7.9710 nz         1 SP8      -0.810600
     20 HAE         -0.5420     0.0760    -0.9350 ha         1 SP8       0.138500
     21 HAD          1.9200     0.0010    -0.9390 ha         1 SP8       0.137000
     22 HAC          3.1570     0.0000     1.1910 ha         1 SP8       0.136000
     23 HAR          1.9420    -0.0010     3.3340 ha         1 SP8       0.137000
     24 HAS         -0.5200    -0.0740     3.3550 ha         1 SP8       0.138500
     25 HNAH        -2.3360    -0.0300     3.2530 hn         1 SP8       0.310500
     26 HAI         -4.6710     0.5860     1.5630 h1         1 SP8       0.083700
     27 HAB         -5.8930    -1.4500     2.4010 hc         1 SP8       0.048033
     28 HABA        -4.3560    -2.0520     3.0360 hc         1 SP8       0.048033
     29 HABB        -4.5650    -1.8270     1.2940 hc         1 SP8       0.048033
     30 HAJ         -5.8880     0.5300     3.7520 hc         1 SP8       0.057700
     31 HAJA        -4.3730     0.0770     4.5440 hc         1 SP8       0.057700
     32 HAK         -3.3240     2.1630     3.7280 h1         1 SP8       0.041700
     33 HAKA        -4.8400     2.6150     2.9360 h1         1 SP8       0.041700
     34 HNAL        -4.4960     2.1660     5.8050 hn         1 SP8       0.353800
     35 HAM         -3.4360     4.1790     5.0950 h1         1 SP8       0.039200
     36 HAMA        -4.9520     4.6320     4.3020 h1         1 SP8       0.039200
     37 HAN         -6.1130     4.5640     6.4850 hc         1 SP8       0.064200
     38 HANA        -4.5970     4.1120     7.2770 hc         1 SP8       0.064200
     39 HAO         -3.5680     6.2290     6.5180 hc         1 SP8       0.065700
     40 HAOA        -5.0840     6.6820     5.7260 hc         1 SP8       0.065700
     41 HAP         -4.7290     6.1620     8.7000 hx         1 SP8       0.113700
     42 HAPA        -6.2440     6.6140     7.9080 hx         1 SP8       0.113700
     43 HNAQ        -3.7970     8.2120     7.9410 hn         1 SP8       0.457133
     44 HNAA        -5.1360     8.5010     8.8330 hn         1 SP8       0.457133
     45 HAQ3        -5.1960     8.6290     7.2050 hn         1 SP8       0.457133
@<TRIPOS>BOND
     1     1     2 ar
     2     1     6 ar
     3     2     3 ar
     4     3     4 ar
     5     4     5 ar
     6     5     6 ar
     7     6     7 1
     8     7     8 2
     9     7     9 1
    10     9    10 1
    11    10    11 1
    12    10    12 1
    13    12    13 1
    14    13    14 1
    15    14    15 1
    16    15    16 1
    17    16    17 1
    18    17    18 1
    19    18    19 1
    20     1    20 1
    21     2    21 1
    22     3    22 1
    23     4    23 1
    24     5    24 1
    25     9    25 1
    26    10    26 1
    27    11    27 1
    28    11    28 1
    29    11    29 1
    30    12    30 1
    31    12    31 1
    32    13    32 1
    33    13    33 1
    34    14    34 1
    35    15    35 1
    36    15    36 1
    37    16    37 1
    38    16    38 1
    39    17    39 1
    40    17    40 1
    41    18    41 1
    42    18    42 1
    43    19    43 1
    44    19    44 1
    45    45    19 1
@<TRIPOS>SUBSTRUCTURE
     1 SP8         1 TEMP              0 ****  ****    0 ROOT
