@<TRIPOS>MOLECULE
SP9
   45    45     1     0     0
SMALL
bcc


@<TRIPOS>ATOM
      1 CAE          0.0000     0.0000     0.0000 ca         1 SP9      -0.060000
      2 CAD          1.3790     0.0000     0.0000 ca         1 SP9      -0.109500
      3 CAC          2.0750     0.0000     1.1960 ca         1 SP9      -0.072000
      4 CAR          1.3930     0.0020     2.4000 ca         1 SP9      -0.109500
      5 CAS          0.0140     0.0030     2.4140 ca         1 SP9      -0.060000
      6 CAF         -0.6950     0.0030     1.2110 ca         1 SP9      -0.162600
      7 CAG         -2.1720     0.0040     1.2200 c          1 SP9       0.600700
      8 OAA         -2.7870     0.0040     0.1700 o          1 SP9      -0.643100
      9 NAH         -2.8400     0.0060     2.3900 ns         1 SP9      -0.208900
     10 CAI         -4.3050     0.0070     2.3990 c3         1 SP9       0.021700
     11 CAB         -4.8150     1.4450     2.2750 c3         1 SP9      -0.015100
     12 CAJ         -4.8080    -0.6010     3.7090 c3         1 SP9      -0.041400
     13 CAK         -4.4050    -2.0750     3.7760 c3         1 SP9       0.139800
     14 NAL         -4.8880    -2.6580     5.0340 n7         1 SP9      -0.579200
     15 CAM         -4.5180    -4.0770     5.1330 c3         1 SP9       0.149800
     16 CAN         -5.0370    -4.6480     6.4540 c3         1 SP9      -0.020400
     17 CAO         -4.6520    -6.1250     6.5570 c3         1 SP9      -0.034400
     18 CAP         -5.1710    -6.6970     7.8780 c3         1 SP9      -0.053200
     19 NAQ         -4.8010    -8.1150     7.9770 nz         1 SP9       0.086400
     20 HAE         -0.5430    -0.0000    -0.9370 ha         1 SP9       0.112000
     21 HAD          1.9190    -0.0020    -0.9390 ha         1 SP9       0.107500
     22 HAC          3.1580    -0.0010     1.1900 ha         1 SP9       0.106000
     23 HAR          1.9430     0.0020     3.3330 ha         1 SP9       0.107500
     24 HAS         -0.5190     0.0050     3.3570 ha         1 SP9       0.112000
     25 HNAH        -2.3350     0.0390     3.2540 hn         1 SP9       0.177500
     26 HAI         -4.6720    -0.5790     1.5650 h1         1 SP9       0.060700
     27 HAB         -5.8910     1.4580     2.3940 hc         1 SP9       0.015700
     28 HABA        -4.5550     1.8370     1.2990 hc         1 SP9       0.015700
     29 HABB        -4.3590     2.0570     3.0430 hc         1 SP9       0.015700
     30 HAJ         -4.3710    -0.0690     4.5450 hc         1 SP9       0.029200
     31 HAJA        -5.8880    -0.5200     3.7540 hc         1 SP9       0.029200
     32 HAK         -4.8420    -2.6080     2.9400 h1         1 SP9       0.014200
     33 HAKA        -3.3250    -2.1570     3.7320 h1         1 SP9       0.014200
     34 HNAL        -4.4970    -2.1570     5.8070 hn         1 SP9       0.254800
     35 HAM         -3.4400    -4.1720     5.0980 h1         1 SP9       0.011700
     36 HAMA        -4.9560    -4.6230     4.3070 h1         1 SP9       0.011700
     37 HAN         -6.1160    -4.5530     6.4890 hc         1 SP9       0.032700
     38 HANA        -4.6000    -4.1020     7.2810 hc         1 SP9       0.032700
     39 HAO         -3.5730    -6.2200     6.5210 hc         1 SP9       0.034200
     40 HAOA        -5.0900    -6.6710     5.7300 hc         1 SP9       0.034200
     41 HAP         -4.7320    -6.1520     8.7050 hx         1 SP9       0.086700
     42 HAPA        -6.2490    -6.6020     7.9140 hx         1 SP9       0.086700
     43 HNAQ        -5.2040    -8.6190     7.2120 hn         1 SP9       0.223800
     44 HNAA        -3.8040    -8.2030     7.9450 hn         1 SP9       0.223800
     45 HAQ3        -5.1420    -8.4900     8.8400 hn         1 SP9       0.223800
@<TRIPOS>BOND
     1     1     2 ar  
     2     1     6 ar  
     3     1    20 1   
     4     2     3 ar  
     5     2    21 1   
     6     3     4 ar  
     7     3    22 1   
     8     4     5 ar  
     9     4    23 1   
    10     5     6 ar  
    11     5    24 1   
    12     6     7 1   
    13     7     8 2   
    14     7     9 1   
    15     9    10 1   
    16     9    25 1   
    17    10    11 1   
    18    10    12 1   
    19    10    26 1   
    20    11    27 1   
    21    11    28 1   
    22    11    29 1   
    23    12    13 1   
    24    12    30 1   
    25    12    31 1   
    26    13    14 1   
    27    13    32 1   
    28    13    33 1   
    29    14    15 1   
    30    14    34 1   
    31    15    16 1   
    32    15    35 1   
    33    15    36 1   
    34    16    17 1   
    35    16    37 1   
    36    16    38 1   
    37    17    18 1   
    38    17    39 1   
    39    17    40 1   
    40    18    19 1   
    41    18    41 1   
    42    18    42 1   
    43    19    43 1   
    44    19    44 1   
    45    19    45 1   
@<TRIPOS>SUBSTRUCTURE
     1 SP9         1 TEMP              0 ****  ****    0 ROOT
