@<TRIPOS>MOLECULE
molecule
   14    14     1     0     0
SMALL
bcc


@<TRIPOS>ATOM
      1 S1           0.0000     0.0000     0.0000 ss         1 SPA      -0.267800
      2 C2           1.7850     0.0000     0.0000 cc         1 SPA       0.135600
      3 C3           2.0650     0.0000     1.3260 cd         1 SPA      -0.227000
      4 C4           1.0210     0.0110     2.2310 cd         1 SPA      -0.150000
      5 C5          -0.2510     0.0090     1.7680 cc         1 SPA      -0.098100
      6 C6           2.7340    -0.0050    -1.1700 c3         1 SPA      -0.118100
      7 C7           3.0500    -1.4270    -1.5540 c          1 SPA       0.893600
      8 O1           2.5550    -2.3420    -0.9410 o          1 SPA      -0.837800
      9 O2           3.8810    -1.6770    -2.5770 o          1 SPA      -0.837800
     10 H3           3.0920     0.0000     1.6710 ha         1 SPA       0.136000
     11 H4           1.2180     0.0140     3.2960 ha         1 SPA       0.114000
     12 H5          -1.1800     0.0140     2.3250 h4         1 SPA       0.161000
     13 H61          2.2740     0.5020    -2.0100 hc         1 SPA       0.049200
     14 H62          3.6480     0.5070    -0.8950 hc         1 SPA       0.049200
@<TRIPOS>BOND
     1     1     2 1
     2     1     5 1
     3     2     3 2
     4     2     6 1
     5     3     4 1
     6     3    10 1
     7     4     5 2
     8     4    11 1
     9     5    12 1
    10     6     7 1
    11     6    13 1
    12     6    14 1
    13     7     8 1
    14     7     9 1
@<TRIPOS>SUBSTRUCTURE
     1 SPA         1 TEMP              0 ****  ****    0 ROOT
