@<TRIPOS>MOLECULE
SPA
   14    14     1     0     0
SMALL
bcc


@<TRIPOS>ATOM
      1 S1          0.7260   -1.2740    0.3550 ss        1 SPA      0.264200
      2 C2          1.9970   -0.1890    0.2310 cc        1 SPA     -0.119400
      3 C3          2.1100    0.6000    1.3650 cd        1 SPA     -0.207000
      4 C4          1.1120    0.2720    2.3260 cd        1 SPA     -0.190000
      5 C5          0.2970   -0.7490    1.8690 cc        1 SPA     -0.327100
      6 C6          2.8390   -0.1490   -0.9710 c3        1 SPA     -0.131100
      7 C7          2.3820   -1.1900   -2.0020 c         1 SPA      0.903600
      8 O1          1.3760   -1.9200   -1.6910 o         1 SPA     -0.818300
      9 O2          2.9950   -1.2940   -3.0950 o         1 SPA     -0.818300
     10 H3          2.8610    1.3750    1.5130 ha        1 SPA      0.119000
     11 H4          1.0230    0.7730    3.2890 ha        1 SPA      0.106000
     12 H5         -0.5330   -1.1610    2.4380 h4        1 SPA      0.128000
     13 H61         3.9100   -0.3530   -0.7100 hc        1 SPA      0.044700
     14 H62         2.7980    0.8650   -1.4480 hc        1 SPA      0.044700
@<TRIPOS>BOND
     1    1    2 1   
     2    1    5 1   
     3    2    3 2   
     4    2    6 1   
     5    3    4 1   
     6    3   10 1   
     7    4    5 2   
     8    4   11 1   
     9    5   12 1   
    10    6    7 1   
    11    6   13 1   
    12    6   14 1   
    13    7    8 1   
    14    7    9 1   
@<TRIPOS>SUBSTRUCTURE
     1 SPA         1 TEMP              0 ****  ****    0 ROOT
