@<TRIPOS>MOLECULE
molecule
   41    42     1     0     0
SMALL
bcc


@<TRIPOS>ATOM
      1 C1           0.0000     0.0000     0.0000 ca         1 SPB      -0.123500
      2 C2           1.3790     0.0000     0.0000 ca         1 SPB      -0.128000
      3 C3           2.0730     0.0000     1.1970 ca         1 SPB      -0.137000
      4 C4           1.3910     0.0010     2.4010 ca         1 SPB      -0.128000
      5 C5           0.0120     0.0060     2.4150 ca         1 SPB      -0.123500
      6 C6          -0.6970     0.0000     1.2120 ca         1 SPB      -0.042800
      7 C7          -2.1700     0.0010     1.2190 ce         1 SPB      -0.135200
      8 C8          -2.8350     0.0010     2.3840 cf         1 SPB      -0.086200
      9 C9          -4.3090     0.0020     2.3920 ca         1 SPB      -0.099800
     10 C10         -5.0040     0.0020     3.6050 ca         1 SPB      -0.097500
     11 C11         -6.3810     0.0020     3.6080 ca         1 SPB      -0.153500
     12 C12         -7.0790     0.0030     2.4060 ca         1 SPB       0.082600
     13 C13         -6.3920    -0.0030     1.1980 ca         1 SPB      -0.153500
     14 C14         -5.0160     0.0030     1.1860 ca         1 SPB      -0.097500
     15 N15         -8.4780     0.0040     2.4140 ns         1 SPB      -0.494100
     16 C16         -9.1560     0.6480     1.4430 c          1 SPB       0.651100
     17 C17        -10.6580     0.5460     1.3800 c3         1 SPB      -0.161400
     18 C18        -11.1760     1.3620     0.1940 c3         1 SPB      -0.050400
     19 C19        -12.7000     1.2590     0.1300 c3         1 SPB      -0.187400
     20 C20        -13.2090     2.0640    -1.0380 c          1 SPB       0.891600
     21 O21        -12.4330     2.6590    -1.7460 o          1 SPB      -0.851800
     22 O22         -8.5570     1.3080     0.6210 o          1 SPB      -0.578100
     23 O23        -14.5260     2.1190    -1.2920 o          1 SPB      -0.851800
     24 HC1         -0.5420    -0.0020    -0.9380 ha         1 SPB       0.132500
     25 HC2          1.9200    -0.0000    -0.9390 ha         1 SPB       0.125000
     26 HC3          3.1560    -0.0020     1.1910 ha         1 SPB       0.123000
     27 HC4          1.9410     0.0030     3.3340 ha         1 SPB       0.125000
     28 HC5         -0.5210     0.0070     3.3580 ha         1 SPB       0.132500
     29 HC7         -2.7170     0.0010     0.2830 ha         1 SPB       0.139000
     30 HC8         -2.2880     0.0010     3.3190 ha         1 SPB       0.126000
     31 H10C        -4.4600     0.0020     4.5420 ha         1 SPB       0.129000
     32 H11C        -6.9200     0.0050     4.5470 ha         1 SPB       0.148500
     33 H13C        -6.9410    -0.0020     0.2640 ha         1 SPB       0.148500
     34 H14C        -4.4810    -0.0020     0.2440 ha         1 SPB       0.129000
     35 H15N        -8.9740    -0.4650     3.1450 hn         1 SPB       0.319500
     36 H171       -11.0850     0.9310     2.2970 hc         1 SPB       0.051200
     37 H172       -10.9440    -0.4920     1.2560 hc         1 SPB       0.051200
     38 H181       -10.8880     2.3990     0.3170 hc         1 SPB       0.063200
     39 H182       -10.7490     0.9760    -0.7240 hc         1 SPB       0.063200
     40 H191       -12.9870     0.2220     0.0060 hc         1 SPB       0.024700
     41 H192       -13.1260     1.6450     1.0470 hc         1 SPB       0.024700
@<TRIPOS>BOND
     1     1     2 ar
     2     1     6 ar
     3     1    24 1
     4     2     3 ar
     5     2    25 1
     6     3     4 ar
     7     3    26 1
     8     4     5 ar
     9     4    27 1
    10     5     6 ar
    11     5    28 1
    12     6     7 1
    13     7     8 2
    14     7    29 1
    15     8     9 1
    16     8    30 1
    17     9    10 ar
    18     9    14 ar
    19    10    11 ar
    20    10    31 1
    21    11    12 ar
    22    11    32 1
    23    12    13 ar
    24    12    15 1
    25    13    14 ar
    26    13    33 1
    27    14    34 1
    28    15    16 1
    29    15    35 1
    30    16    17 1
    31    16    22 2
    32    17    18 1
    33    17    36 1
    34    17    37 1
    35    18    19 1
    36    18    38 1
    37    18    39 1
    38    19    20 1
    39    19    40 1
    40    19    41 1
    41    20    21 1
    42    20    23 1
@<TRIPOS>SUBSTRUCTURE
     1 SPB         1 TEMP              0 ****  ****    0 ROOT
