@<TRIPOS>MOLECULE
SPB
   41    44     1     0     0
SMALL
bcc


@<TRIPOS>ATOM
      1 C1           0.0000     0.0000     0.0000 c2         1 SPB      -0.189500
      2 C2           1.3790     0.0000     0.0000 c2         1 SPB      -0.056000
      3 C3           2.0730     0.0000     1.1970 c2         1 SPB      -0.167000
      4 C4           1.3910     0.0010     2.4010 c2         1 SPB      -0.056000
      5 C5           0.0120     0.0060     2.4150 c2         1 SPB      -0.189500
      6 C6          -0.6970     0.0000     1.2120 c3         1 SPB       0.086000
      7 C7          -2.1700     0.0010     1.2190 c2         1 SPB      -0.055000
      8 C8          -2.8350     0.0010     2.3840 c2         1 SPB      -0.065000
      9 C9          -4.3090     0.0020     2.3920 c3         1 SPB      -0.023000
     10 C10         -5.0040     0.0020     3.6050 c2         1 SPB      -0.137500
     11 C11         -6.3810     0.0020     3.6080 c2         1 SPB      -0.092500
     12 C12         -7.0790     0.0030     2.4060 c2         1 SPB      -0.086000
     13 C13         -6.3920    -0.0030     1.1980 c2         1 SPB      -0.092500
     14 C14         -5.0160     0.0030     1.1860 c2         1 SPB      -0.137500
     15 N15         -8.4780     0.0040     2.4140 ns         1 SPB       0.084000
     16 C16         -9.1560     0.6480     1.4430 c2         1 SPB       0.203000
     17 C17        -10.6580     0.5460     1.3800 c3         1 SPB      -0.133000
     18 C18        -11.1760     1.3620     0.1940 c3         1 SPB      -0.083000
     19 C19        -12.7000     1.2590     0.1300 c3         1 SPB      -0.166000
     20 C20        -13.2090     2.0640    -1.0380 c2         1 SPB       0.399000
     21 O21        -12.4330     2.6590    -1.7460 o          1 SPB      -0.636500
     22 O22         -8.5570     1.3080     0.6210 o          1 SPB      -0.378000
     23 O23        -14.5260     2.1190    -1.2920 o          1 SPB      -0.636500
     24 HC1         -0.5420    -0.0020    -0.9380 ha         1 SPB       0.119000
     25 HC2          1.9200    -0.0000    -0.9390 ha         1 SPB       0.097500
     26 HC3          3.1560    -0.0020     1.1910 ha         1 SPB       0.101000
     27 HC4          1.9410     0.0030     3.3340 ha         1 SPB       0.097500
     28 HC5         -0.5210     0.0070     3.3580 ha         1 SPB       0.119000
     29 HC7         -1.5570     0.8760     1.3990 DU         1 SPB       0.052000
     30 HC8         -3.4480     0.8760     2.2020 DU         1 SPB       0.107000
     31 H10C        -4.4600     0.0020     4.5420 ha         1 SPB       0.115000
     32 H11C        -6.9200     0.0050     4.5470 ha         1 SPB       0.126500
     33 H13C        -6.9410    -0.0020     0.2640 ha         1 SPB       0.126500
     34 H14C        -4.4810    -0.0020     0.2440 ha         1 SPB       0.115000
     35 H15N        -8.9740    -0.4980     3.1230 hn         1 SPB       0.080000
     36 H171       -10.9440    -0.4920     1.2560 hc         1 SPB       0.059500
     37 H172       -11.0850     0.9310     2.2970 hc         1 SPB       0.059500
     38 H181       -10.7490     0.9760    -0.7240 hc         1 SPB       0.075500
     39 H182       -10.8880     2.3990     0.3170 hc         1 SPB       0.075500
     40 H191       -12.9870     0.2220     0.0060 hc         1 SPB       0.041000
     41 H192       -13.1260     1.6450     1.0470 hc         1 SPB       0.041000
@<TRIPOS>BOND
     1     1     2 1   
     2     1     6 1   
     3     1    24 1   
     4     2     3 1   
     5     2    25 1   
     6     3     4 1   
     7     3    26 1   
     8     4     5 1   
     9     4    27 1   
    10     5     6 1   
    11     5    28 1   
    12     6     7 1   
    13     6    29 1   
    14     7     8 1   
    15     7    29 1   
    16     8     9 1   
    17     8    30 1   
    18     9    10 1   
    19     9    14 1   
    20     9    30 1   
    21    10    11 1   
    22    10    31 1   
    23    11    12 1   
    24    11    32 1   
    25    12    13 1   
    26    12    15 1   
    27    13    14 1   
    28    13    33 1   
    29    14    34 1   
    30    15    16 1   
    31    15    35 1   
    32    16    17 1   
    33    16    22 1   
    34    17    18 1   
    35    17    36 1   
    36    17    37 1   
    37    18    19 1   
    38    18    38 1   
    39    18    39 1   
    40    19    20 1   
    41    19    40 1   
    42    19    41 1   
    43    20    21 1   
    44    20    23 1   
@<TRIPOS>SUBSTRUCTURE
     1 SPB         1 TEMP              0 ****  ****    0 ROOT
