@<TRIPOS>MOLECULE
molecule
   42    43     1     0     0
SMALL
bcc


@<TRIPOS>ATOM
      1 C1           0.0000     0.0000     0.0000 ca         1 SPC      -0.359500
      2 C2           1.3820     0.0000     0.0000 ca         1 SPC       0.007000
      3 C3           2.0750     0.0000     1.1960 ca         1 SPC      -0.215500
      4 C4           1.3810     0.0040     2.3970 ca         1 SPC       0.168100
      5 C5          -0.0050     0.0040     2.3940 ca         1 SPC      -0.215500
      6 C6          -0.6930     0.0090     1.1960 ca         1 SPC       0.007000
      7 S11         -0.8790    -0.0010    -1.5270 sy         1 SPC       1.448200
      8 O12          0.0220     0.5230    -2.4920 o          1 SPC      -0.614300
      9 O13         -2.1660     0.5260    -1.2320 o          1 SPC      -0.614300
     10 O35          2.0590     0.0050     3.5750 os         1 SPC      -0.292900
     11 C8           1.0800     0.0070     4.6150 c3         1 SPC       0.102700
     12 N14         -1.1270    -1.5820    -1.9530 n3         1 SPC      -0.807500
     13 C15         -2.2910    -2.3980    -1.5780 c3         1 SPC       0.191500
     14 C16         -2.1030    -3.7870    -2.2210 c3         1 SPC      -0.102400
     15 C17         -1.1230    -3.4990    -3.3890 c3         1 SPC       0.136500
     16 C29         -3.5550    -1.7610    -2.0940 c          1 SPC       0.648100
     17 O31         -3.5010    -0.7170    -2.7070 o          1 SPC      -0.526100
     18 N32         -4.7460    -2.3520    -1.8740 ns         1 SPC      -0.477400
     19 O33         -5.9340    -1.7550    -2.3580 oh         1 SPC      -0.355100
     20 C18         -0.2190    -2.4030    -2.7740 c3         1 SPC       0.247800
     21 N23         -0.3410    -4.6960    -3.7280 n7         1 SPC      -0.558700
     22 O24          0.0280    -4.5720    -5.1370 os         1 SPC      -0.245100
     23 C25          0.7890    -5.7350    -5.4700 c3         1 SPC       0.112700
     24 HC21         1.9230    -0.0050    -0.9390 ha         1 SPC       0.152500
     25 HC31         3.1580    -0.0000     1.1950 ha         1 SPC       0.148000
     26 HC51        -0.5490     0.0090     3.3300 ha         1 SPC       0.148000
     27 HC61        -1.7760     0.0090     1.1930 ha         1 SPC       0.152500
     28 HC81         0.4620     0.8920     4.5270 h1         1 SPC       0.047367
     29 HC82         0.4600    -0.8770     4.5280 h1         1 SPC       0.047367
     30 HC83         1.5770     0.0070     5.5780 h1         1 SPC       0.047367
     31 H151        -2.3360    -2.4960    -0.5000 h1         1 SPC       0.063700
     32 H161        -3.0460    -4.1640    -2.5970 hc         1 SPC       0.061700
     33 H162        -1.6600    -4.4780    -1.5130 hc         1 SPC       0.061700
     34 H171        -1.6550    -3.1180    -4.2530 h1         1 SPC       0.084700
     35 H32         -4.7930    -3.2000    -1.3450 hn         1 SPC       0.312500
     36 H33         -6.6740    -2.2840    -2.1140 ho         1 SPC       0.396000
     37 H181         0.5460    -2.8520    -2.1520 h1         1 SPC       0.068200
     38 H182         0.2280    -1.8010    -3.5560 h1         1 SPC       0.068200
     39 H231        -0.9080    -5.5110    -3.6020 hn         1 SPC       0.342800
     40 H251         1.5410    -5.9060    -4.7090 h1         1 SPC       0.038033
     41 H252         1.2730    -5.5890    -6.4280 h1         1 SPC       0.038033
     42 H253         0.1300    -6.5940    -5.5260 h1         1 SPC       0.038033
@<TRIPOS>BOND
     1     1     2 ar
     2     1     6 ar
     3     1     7 1
     4     2     3 ar
     5     2    24 1
     6     3     4 ar
     7     3    25 1
     8     4     5 ar
     9     4    10 1
    10     5     6 ar
    11     5    26 1
    12     6    27 1
    13     7     8 2
    14     7     9 2
    15     7    12 1
    16    10    11 1
    17    11    28 1
    18    11    29 1
    19    11    30 1
    20    12    13 1
    21    12    20 1
    22    13    14 1
    23    13    16 1
    24    13    31 1
    25    14    15 1
    26    14    32 1
    27    14    33 1
    28    15    20 1
    29    15    21 1
    30    15    34 1
    31    16    17 2
    32    16    18 1
    33    18    19 1
    34    18    35 1
    35    19    36 1
    36    20    37 1
    37    20    38 1
    38    21    22 1
    39    21    39 1
    40    22    23 1
    41    23    40 1
    42    23    41 1
    43    23    42 1
@<TRIPOS>SUBSTRUCTURE
     1 SPC         1 TEMP              0 ****  ****    0 ROOT
