@<TRIPOS>MOLECULE
molecule
   31    30     1     0     0
SMALL
bcc


@<TRIPOS>ATOM
      1 N1           0.0000     0.0000     0.0000 nz         1 SPD      -0.809600
      2 C2           1.4680     0.0000     0.0000 c3         1 SPD       0.094800
      3 C3           1.9800     0.0000     1.4410 c3         1 SPD      -0.112400
      4 C4           3.5100     0.0000     1.4420 c3         1 SPD      -0.076400
      5 C5           4.0200     0.0000     2.8830 c3         1 SPD       0.150800
      6 N6           5.4880     0.0000     2.8810 n7         1 SPD      -0.791200
      7 C7           5.9120    -0.0000     4.2880 c3         1 SPD       0.156800
      8 C8           7.4390     0.0000     4.3620 c3         1 SPD      -0.115400
      9 C9           7.8810    -0.0000     5.8260 c3         1 SPD       0.092800
     10 N10          9.3480     0.0010     5.8980 nz         1 SPD      -0.808600
     11 HN11        -0.3340    -0.8170     0.4720 hn         1 SPD       0.461467
     12 HN12        -0.3340    -0.0000    -0.9440 hn         1 SPD       0.461467
     13 H21          1.8290    -0.8840    -0.5110 hx         1 SPD       0.115700
     14 H22          1.8290     0.8840    -0.5110 hx         1 SPD       0.115700
     15 H31          1.6190     0.8840     1.9520 hc         1 SPD       0.068200
     16 H32          1.6190    -0.8840     1.9520 hc         1 SPD       0.068200
     17 H41          3.8710     0.8850     0.9310 hc         1 SPD       0.069200
     18 H42          3.8710    -0.8840     0.9310 hc         1 SPD       0.069200
     19 H51          3.6600     0.8850     3.3940 h1         1 SPD       0.047700
     20 H52          3.6600    -0.8840     3.3940 h1         1 SPD       0.047700
     21 HN6          5.8220    -0.8300     2.4320 hn         1 SPD       0.362800
     22 H71          5.5270    -0.8850     4.7810 h1         1 SPD       0.052200
     23 H72          5.5260     0.8840     4.7810 h1         1 SPD       0.052200
     24 H81          7.8250    -0.8840     3.8690 hc         1 SPD       0.075700
     25 H82          7.8240     0.8850     3.8690 hc         1 SPD       0.075700
     26 H91          7.4950     0.8840     6.3200 hx         1 SPD       0.114200
     27 H92          7.4960    -0.8850     6.3190 hx         1 SPD       0.114200
     28 H101         9.7050     0.7950     5.4050 hn         1 SPD       0.462133
     29 H102         9.6350     0.0450     6.8550 hn         1 SPD       0.462133
     30 H13         -0.3340     0.8170     0.4710 hn         1 SPD       0.461467
     31 H103         9.7030    -0.8300     5.4660 hn         1 SPD       0.462133
@<TRIPOS>BOND
     1     1     2 1
     2     1    11 1
     3     1    12 1
     4     2     3 1
     5     2    13 1
     6     2    14 1
     7     3     4 1
     8     3    15 1
     9     3    16 1
    10     4     5 1
    11     4    17 1
    12     4    18 1
    13     5     6 1
    14     5    19 1
    15     5    20 1
    16     6     7 1
    17     6    21 1
    18     7     8 1
    19     7    22 1
    20     7    23 1
    21     8     9 1
    22     8    24 1
    23     8    25 1
    24     9    10 1
    25     9    26 1
    26     9    27 1
    27    10    28 1
    28    10    29 1
    29    30     1 1
    30    31    10 1
@<TRIPOS>SUBSTRUCTURE
     1 SPD         1 TEMP              0 ****  ****    0 ROOT
