@<TRIPOS>MOLECULE
molecule
   39    38     1     0     0
SMALL
bcc


@<TRIPOS>ATOM
      1 N1           0.0000     0.0000     0.0000 nz         1 SPE      -0.809600
      2 C2           1.4680     0.0000     0.0000 c3         1 SPE       0.091800
      3 C3           1.9800     0.0000     1.4410 c3         1 SPE      -0.115400
      4 C4           3.5100    -0.0010     1.4410 c3         1 SPE       0.157300
      5 N5           4.0010    -0.0010     2.8250 n7         1 SPE      -0.792200
      6 C6           5.4680    -0.0020     2.7530 c3         1 SPE       0.146800
      7 C7           6.0480    -0.0020     4.1680 c3         1 SPE      -0.083400
      8 C8           7.5760    -0.0040     4.0930 c3         1 SPE       0.146800
      9 N9           8.1330    -0.0040     5.4510 n7         1 SPE      -0.792200
     10 C10          9.5940    -0.0050     5.3090 c3         1 SPE       0.157300
     11 C11         10.2430    -0.0050     6.6950 c3         1 SPE      -0.115400
     12 C12         11.7650    -0.0050     6.5470 c3         1 SPE       0.091800
     13 N13         12.3880    -0.0060     7.8760 nz         1 SPE      -0.809600
     14 HN11        -0.3340     0.8390     0.4320 hn         1 SPE       0.460467
     15 HN12        -0.3340    -0.7940     0.5100 hn         1 SPE       0.460467
     16 H21          1.8290    -0.8840    -0.5110 hx         1 SPE       0.113200
     17 H22          1.8290     0.8840    -0.5110 hx         1 SPE       0.113200
     18 H31          1.6180    -0.8840     1.9520 hc         1 SPE       0.074200
     19 H32          1.6200     0.8850     1.9520 hc         1 SPE       0.074200
     20 H41          3.8720     0.8820     0.9300 h1         1 SPE       0.048700
     21 H42          3.8700    -0.8860     0.9300 h1         1 SPE       0.048700
     22 HN5          3.6900     0.8290     3.2890 hn         1 SPE       0.360800
     23 H61          5.8030    -0.8870     2.2250 h1         1 SPE       0.042200
     24 H62          5.8040     0.8820     2.2240 h1         1 SPE       0.042200
     25 H71          5.7110    -0.8850     4.6970 hc         1 SPE       0.063700
     26 H72          5.7140     0.8840     4.6950 hc         1 SPE       0.063700
     27 H81          7.9100    -0.8900     3.5660 h1         1 SPE       0.042200
     28 H82          7.9130     0.8790     3.5640 h1         1 SPE       0.042200
     29 HN9          7.8440    -0.8330     5.9310 hn         1 SPE       0.360800
     30 H101         9.9040    -0.8890     4.7660 h1         1 SPE       0.048700
     31 H102         9.9050     0.8800     4.7660 h1         1 SPE       0.048700
     32 H111         9.9340     0.8790     7.2390 hc         1 SPE       0.074200
     33 H112         9.9330    -0.8900     7.2380 hc         1 SPE       0.074200
     34 H121        12.0750     0.8790     6.0030 hx         1 SPE       0.113200
     35 H122        12.0750    -0.8900     6.0030 hx         1 SPE       0.113200
     36 HN31        12.0680     0.7880     8.3950 hn         1 SPE       0.460467
     37 HN32        13.3830     0.0390     7.7790 hn         1 SPE       0.460467
     38 H13         -0.3340    -0.0450    -0.9430 hn         1 SPE       0.460467
     39 H133        12.1390    -0.8450     8.3620 hn         1 SPE       0.460467
@<TRIPOS>BOND
     1     1     2 1
     2     1    14 1
     3     1    15 1
     4     2     3 1
     5     2    16 1
     6     2    17 1
     7     3     4 1
     8     3    18 1
     9     3    19 1
    10     4     5 1
    11     4    20 1
    12     4    21 1
    13     5     6 1
    14     5    22 1
    15     6     7 1
    16     6    23 1
    17     6    24 1
    18     7     8 1
    19     7    25 1
    20     7    26 1
    21     8     9 1
    22     8    27 1
    23     8    28 1
    24     9    10 1
    25     9    29 1
    26    10    11 1
    27    10    30 1
    28    10    31 1
    29    11    12 1
    30    11    32 1
    31    11    33 1
    32    12    13 1
    33    12    34 1
    34    12    35 1
    35    13    36 1
    36    13    37 1
    37    38     1 1
    38    39    13 1
@<TRIPOS>SUBSTRUCTURE
     1 SPE         1 TEMP              0 ****  ****    0 ROOT
