@<TRIPOS>MOLECULE
SPG
   38    39     1     0     0
SMALL
bcc


@<TRIPOS>ATOM
      1 P          -2.0510   -0.2930    0.2700 p4        1 SPG      1.540300
      2 O1P        -1.5640   -1.6050    0.7380 o         1 SPG     -0.825167
      3 O2P        -2.2430    0.7860    1.2910 o         1 SPG     -0.825167
      4 O3P        -2.8150   -0.1920   -0.9890 o         1 SPG     -0.873967
      5 S6          0.2000    0.6720   -0.5700 s         1 SPG     -0.587400
      6 O1A         9.5120    6.6890   -2.2180 o         1 SPG     -0.931833
      7 PA          9.1150    7.7770   -1.2640 p5        1 SPG      1.336900
      8 O2A         9.7070    9.1390   -1.4620 o         1 SPG     -0.931833
      9 O3A         8.9510    7.3180    0.1740 o         1 SPG     -0.931833
     10 O5'         7.4330    8.0070   -1.6470 os        1 SPG     -0.561200
     11 C5'         6.6660    6.8810   -1.5120 c3        1 SPG      0.236400
     12 C4'         5.8260    6.9600   -0.2130 c3        1 SPG      0.063100
     13 O4'         4.5150    6.3910   -0.4540 os        1 SPG     -0.439600
     14 C3'         6.4560    6.2240    0.9830 c3        1 SPG      0.131100
     15 O3'         6.9090    7.1390    1.9520 oh        1 SPG     -0.691800
     16 C2'         5.3210    5.3750    1.5970 c3        1 SPG      0.100100
     17 O2'         4.9900    5.6860    2.9310 oh        1 SPG     -0.611800
     18 C1'         4.0770    5.6530    0.6850 c3        1 SPG      0.215800
     19 N9          3.3880    4.4560    0.2300 na        1 SPG     -0.180900
     20 C8          3.7790    3.5800   -0.8060 cc        1 SPG      0.436400
     21 N7          2.9130    2.5660   -1.0120 nd        1 SPG     -0.623000
     22 C5          1.8850    2.7670   -0.0860 cd        1 SPG      0.237800
     23 C6          0.6840    2.0220    0.1800 c         1 SPG      0.368900
     24 N1         -0.1060    2.5580    1.1940 n         1 SPG     -0.414400
     25 C2          0.2440    3.7060    1.8730 cd        1 SPG      0.455800
     26 N3          1.3310    4.4500    1.6910 nc        1 SPG     -0.599100
     27 C4          2.1680    3.9680    0.6970 cc        1 SPG      0.067800
     28 H5'1        5.9370    6.8110   -2.3710 h1        1 SPG      0.003200
     29 H5'2        7.3040    5.9540   -1.4960 h1        1 SPG      0.003200
     30 H4'         5.6570    8.0400    0.0490 h1        1 SPG      0.066700
     31 H3'         7.3090    5.5730    0.6480 h1        1 SPG      0.104700
     32 HO3'        7.7640    7.4940    1.5990 ho        1 SPG      0.518000
     33 H2'         5.5940    4.2860    1.6040 h1        1 SPG      0.067700
     34 HO2'        5.2820    6.5910    3.1070 ho        1 SPG      0.426000
     35 H1'         3.3210    6.2810    1.2450 h2        1 SPG      0.079700
     36 H8          4.7030    3.7660   -1.3710 h5        1 SPG      0.087100
     37 HN1        -0.9850    2.0470    1.4160 hn        1 SPG      0.434500
     38 H2         -0.4680    4.0380    2.6570 h5        1 SPG      0.047800
@<TRIPOS>BOND
     1    1    2 1   
     2    1    3 1   
     3    1    4 2   
     4    5   23 2   
     5    6    7 1   
     6    7    8 1   
     7    7    9 1   
     8    7   10 1   
     9   10   11 1   
    10   11   12 1   
    11   11   28 1   
    12   11   29 1   
    13   12   13 1   
    14   12   14 1   
    15   12   30 1   
    16   13   18 1   
    17   14   15 1   
    18   14   16 1   
    19   14   31 1   
    20   15   32 1   
    21   16   17 1   
    22   16   18 1   
    23   16   33 1   
    24   17   34 1   
    25   18   19 1   
    26   18   35 1   
    27   19   20 1   
    28   19   27 1   
    29   20   21 2   
    30   20   36 1   
    31   21   22 1   
    32   22   23 1   
    33   22   27 2   
    34   23   24 1   
    35   24   25 1   
    36   24   37 1   
    37   25   26 2   
    38   25   38 1   
    39   26   27 1   
@<TRIPOS>SUBSTRUCTURE
     1 SPG         1 TEMP              0 ****  ****    0 ROOT
