@<TRIPOS>MOLECULE
molecule
   38    40     1     0     0
SMALL
bcc


@<TRIPOS>ATOM
      1 P            0.0000     0.0000     0.0000 p5         1 SPG       0.762900
      2 O1P          1.4800     0.0000     0.0000 o          1 SPG      -0.741167
      3 O2P         -0.5370     0.0000     1.5170 o          1 SPG      -0.741167
      4 O3P         -0.5360    -1.3150    -0.7600 o          1 SPG      -0.741167
      5 S6          -0.7060     1.7300    -1.0000 ss         1 SPG      -0.315300
      6 O1A          8.7150     5.4770    -2.7410 o          1 SPG      -0.908167
      7 PA           8.6030     6.9420    -2.5660 p5         1 SPG       1.148900
      8 O2A          8.5530     7.6530    -4.0090 o          1 SPG      -0.908167
      9 O3A          9.8780     7.4830    -1.7450 o          1 SPG      -0.908167
     10 O5'          7.2500     7.2710    -1.7580 os         1 SPG      -0.526200
     11 C5'          7.3010     6.5220    -0.5420 c3         1 SPG       0.160400
     12 C4'          6.0370     6.7900     0.2760 c3         1 SPG       0.119100
     13 O4'          4.8890     6.2500    -0.4000 os         1 SPG      -0.375600
     14 C3'          6.1380     6.0870     1.6430 c3         1 SPG       0.083100
     15 O3'          6.0680     7.0410     2.7040 oh         1 SPG      -0.595800
     16 C2'          4.9110     5.1450     1.6790 c3         1 SPG       0.085100
     17 O2'          4.3000     5.1490     2.9720 oh         1 SPG      -0.586800
     18 C1'          3.9760     5.7920     0.6210 c3         1 SPG       0.238800
     19 N9           3.0460     4.8010     0.0750 na         1 SPG      -0.156500
     20 C8           3.2530     4.0190    -1.0220 cc         1 SPG       0.477700
     21 N7           2.2210     3.2520    -1.2230 nd         1 SPG      -0.517100
     22 C5           1.2880     3.4940    -0.2710 cd         1 SPG      -0.010900
     23 C6           0.0090     2.9820     0.0130 cc         1 SPG       0.324600
     24 N1          -0.6470     3.4660     1.0640 na         1 SPG      -0.241900
     25 C2          -0.1190     4.4030     1.8290 cc         1 SPG       0.500400
     26 N3           1.0740     4.9110     1.6010 nd         1 SPG      -0.690000
     27 C4           1.8080     4.4870     0.5770 cd         1 SPG       0.359300
     28 H5'1         8.1710     6.8210     0.0290 h1         1 SPG       0.052200
     29 H5'2         7.3650     5.4650    -0.7720 h1         1 SPG       0.052200
     30 H4'          5.9070     7.8560     0.4220 h1         1 SPG       0.070700
     31 H3'          7.0540     5.5120     1.7030 h1         1 SPG       0.063700
     32 HO3'         6.8640     7.0110     3.2070 ho         1 SPG       0.393000
     33 H2'          5.1890     4.1410     1.3810 h1         1 SPG       0.071700
     34 HO2'         4.5660     4.3810     3.4480 ho         1 SPG       0.398000
     35 H1'          3.4400     6.6290     1.0520 h2         1 SPG       0.090700
     36 H8           4.1450     4.0330    -1.6360 h5         1 SPG       0.127800
     37 HN1         -1.5580     3.1120     1.2790 hn         1 SPG       0.331700
     38 H2          -0.6880     4.7680     2.6740 h5         1 SPG       0.049100
@<TRIPOS>BOND
     1     1     2 1
     2     1     3 1
     3     1     4 1
     4     1     5 1
     5     5    23 1
     6     6     7 1
     7     7     8 1
     8     7     9 1
     9     7    10 1
    10    10    11 1
    11    11    12 1
    12    11    28 1
    13    11    29 1
    14    12    13 1
    15    12    14 1
    16    12    30 1
    17    13    18 1
    18    14    15 1
    19    14    16 1
    20    14    31 1
    21    15    32 1
    22    16    17 1
    23    16    18 1
    24    16    33 1
    25    17    34 1
    26    18    19 1
    27    18    35 1
    28    19    20 1
    29    19    27 2
    30    20    21 2
    31    20    36 1
    32    21    22 1
    33    22    23 2
    34    22    27 1
    35    23    24 1
    36    24    25 1
    37    24    37 1
    38    25    26 2
    39    25    38 1
    40    26    27 1
@<TRIPOS>SUBSTRUCTURE
     1 SPG         1 TEMP              0 ****  ****    0 ROOT
