@<TRIPOS>MOLECULE
SPH
   59    58     1     0     0
SMALL
bcc


@<TRIPOS>ATOM
      1 C1           0.0000     0.0000     0.0000 c3         1 SPH       0.218400
      2 O1          -0.4760     1.2210     0.5690 oh         1 SPH      -0.617800
      3 C2           1.5300     0.0000     0.0000 c3         1 SPH      -0.110500
      4 N2           2.0200     0.0000     1.3850 nz         1 SPH       0.082400
      5 C3           2.0400    -1.2490    -0.7210 c3         1 SPH       0.227300
      6 O3           1.5640    -1.2500    -2.0680 oh         1 SPH      -0.559800
      7 C4           3.5470    -1.2490    -0.7210 c2         1 SPH      -0.334200
      8 C5           4.2020    -2.3000    -0.2930 c2         1 SPH      -0.036200
      9 C6           3.4590    -3.5700     0.0330 c3         1 SPH      -0.029200
     10 C7           4.1000    -4.7410    -0.7130 c3         1 SPH      -0.017400
     11 C8           3.3460    -6.0310    -0.3830 c3         1 SPH      -0.028400
     12 C9           3.9880    -7.2020    -1.1280 c3         1 SPH      -0.027400
     13 C10          3.2330    -8.4920    -0.7980 c3         1 SPH      -0.028400
     14 C11          3.8740    -9.6640    -1.5430 c3         1 SPH      -0.028400
     15 C12          3.1200   -10.9540    -1.2130 c3         1 SPH      -0.028400
     16 C13          3.7620   -12.1260    -1.9580 c3         1 SPH      -0.028400
     17 C14          3.0070   -13.4150    -1.6280 c3         1 SPH      -0.028400
     18 C15          3.6490   -14.5870    -2.3730 c3         1 SPH      -0.029400
     19 C16          2.8940   -15.8760    -2.0430 c3         1 SPH      -0.029400
     20 C17          3.5360   -17.0480    -2.7880 c3         1 SPH      -0.028400
     21 C18          2.7810   -18.3370    -2.4580 c3         1 SPH       0.006900
     22 H11         -0.3610    -0.8370     0.5860 h1         1 SPH       0.031700
     23 H12         -0.3610    -0.0890    -1.0170 h1         1 SPH       0.031700
     24 HO1         -1.4110     1.2750     0.4610 ho         1 SPH       0.444000
     25 H2           1.8910     0.8850    -0.5110 hx         1 SPH       0.106700
     26 HN21         3.0040     0.1800     1.3910 hn         1 SPH       0.226467
     27 HN22         1.8420    -0.8920     1.8020 hn         1 SPH       0.226467
     28 H3           1.6790    -2.1330    -0.2100 h1         1 SPH       0.055700
     29 HO3          2.2970    -1.2400    -2.6610 ho         1 SPH       0.429000
     30 H4           4.0850    -0.3380    -0.9540 ha         1 SPH       0.131000
     31 H5           5.2850    -2.2960    -0.2930 ha         1 SPH       0.125000
     32 H61          2.4240    -3.4710    -0.2730 hc         1 SPH       0.029200
     33 H62          3.5050    -3.7520     1.0990 hc         1 SPH       0.029200
     34 H71          5.1350    -4.8400    -0.4080 hc         1 SPH       0.024700
     35 H72          4.0540    -4.5590    -1.7800 hc         1 SPH       0.024700
     36 H81          3.3920    -6.2130     0.6840 hc         1 SPH       0.015200
     37 H82          2.3110    -5.9320    -0.6870 hc         1 SPH       0.015200
     38 H91          3.9410    -7.0200    -2.1950 hc         1 SPH       0.019200
     39 H92          5.0230    -7.3010    -0.8240 hc         1 SPH       0.019200
     40 H101         3.2800    -8.6740     0.2690 hc         1 SPH       0.015200
     41 H102         2.1980    -8.3930    -1.1020 hc         1 SPH       0.015200
     42 H111         3.8270    -9.4810    -2.6100 hc         1 SPH       0.016700
     43 H112         4.9090    -9.7620    -1.2390 hc         1 SPH       0.016700
     44 H121         2.0850   -10.8550    -1.5170 hc         1 SPH       0.014700
     45 H122         3.1670   -11.1360    -0.1460 hc         1 SPH       0.014700
     46 H131         3.7150   -11.9440    -3.0250 hc         1 SPH       0.015700
     47 H132         4.7970   -12.2240    -1.6540 hc         1 SPH       0.015700
     48 H141         3.0540   -13.5970    -0.5610 hc         1 SPH       0.014700
     49 H142         1.9730   -13.3160    -1.9320 hc         1 SPH       0.014700
     50 H151         3.6030   -14.4050    -3.4400 hc         1 SPH       0.015200
     51 H152         4.6840   -14.6860    -2.0680 hc         1 SPH       0.015200
     52 H161         1.8590   -15.7770    -2.3480 hc         1 SPH       0.014700
     53 H162         2.9400   -16.0580    -0.9760 hc         1 SPH       0.014700
     54 H171         3.4890   -16.8660    -3.8550 hc         1 SPH       0.012700
     55 H172         4.5700   -17.1470    -2.4840 hc         1 SPH       0.012700
     56 H181         1.7450   -18.2360    -2.7560 hc         1 SPH       0.001033
     57 H182         3.2310   -19.1660    -2.9910 hc         1 SPH       0.001033
     58 H183         2.8340   -18.5230    -1.3920 hc         1 SPH       0.001033
     59 H23          1.5490     0.7130     1.9060 hn         1 SPH       0.226467
@<TRIPOS>BOND
     1     1     2 1   
     2     1     3 1   
     3     1    22 1   
     4     1    23 1   
     5     2    24 1   
     6     3     4 1   
     7     3     5 1   
     8     3    25 1   
     9     4    26 1   
    10     4    27 1   
    11     4    59 1   
    12     5     6 1   
    13     5     7 1   
    14     5    28 1   
    15     6    29 1   
    16     7     8 2   
    17     7    30 1   
    18     8     9 1   
    19     8    31 1   
    20     9    10 1   
    21     9    32 1   
    22     9    33 1   
    23    10    11 1   
    24    10    34 1   
    25    10    35 1   
    26    11    12 1   
    27    11    36 1   
    28    11    37 1   
    29    12    13 1   
    30    12    38 1   
    31    12    39 1   
    32    13    14 1   
    33    13    40 1   
    34    13    41 1   
    35    14    15 1   
    36    14    42 1   
    37    14    43 1   
    38    15    16 1   
    39    15    44 1   
    40    15    45 1   
    41    16    17 1   
    42    16    46 1   
    43    16    47 1   
    44    17    18 1   
    45    17    48 1   
    46    17    49 1   
    47    18    19 1   
    48    18    50 1   
    49    18    51 1   
    50    19    20 1   
    51    19    52 1   
    52    19    53 1   
    53    20    21 1   
    54    20    54 1   
    55    20    55 1   
    56    21    56 1   
    57    21    57 1   
    58    21    58 1   
@<TRIPOS>SUBSTRUCTURE
     1 SPH         1 TEMP              0 ****  ****    0 ROOT
