@<TRIPOS>MOLECULE
SPI
   54    56     1     0     0
SMALL
bcc


@<TRIPOS>ATOM
      1 S1           0.0000     0.0000     0.0000 sy         1 SPI       1.059200
      2 O1           1.4210     0.0000     0.0000 o          1 SPI      -0.585300
      3 O2          -0.8220     0.0000     1.1590 o          1 SPI      -0.585300
      4 C1          -0.4790     1.4190    -0.9280 ca         1 SPI      -0.183500
      5 C2          -1.4030     2.3050    -0.4060 ca         1 SPI       0.060000
      6 C3          -1.7790     3.4180    -1.1300 ca         1 SPI      -0.217500
      7 C4          -1.2310     3.6470    -2.3840 ca         1 SPI       0.183100
      8 C5          -0.3090     2.7530    -2.9080 ca         1 SPI      -0.217500
      9 C6           0.0700     1.6440    -2.1760 ca         1 SPI       0.060000
     10 O3          -1.6000     4.7420    -3.0990 os         1 SPI      -0.280900
     11 C7          -0.8720     4.6970    -4.3280 c3         1 SPI       0.217700
     12 N1          -0.4510    -1.3350    -0.8710 n3         1 SPI      -0.526500
     13 C8          -1.8030    -1.8920    -0.7410 c3         1 SPI       0.132500
     14 C9          -2.4370    -1.9610    -2.1400 c3         1 SPI       0.047000
     15 N2          -1.4870    -2.6130    -3.0510 n          1 SPI      -0.134800
     16 C10         -0.1320    -2.0610    -3.1770 c3         1 SPI       0.022000
     17 C11          0.5000    -1.9880    -1.7820 c3         1 SPI       0.217800
     18 C12         -1.8530    -3.7000    -3.7590 c          1 SPI       0.703100
     19 O4          -2.9760    -4.1480    -3.6480 o          1 SPI      -0.661000
     20 O5          -0.9730    -4.2890    -4.5920 os         1 SPI      -0.431900
     21 C13         -1.3670    -5.4590    -5.3550 c3         1 SPI       0.310700
     22 C14         -0.2100    -5.9210    -6.2000 ca         1 SPI      -0.123300
     23 C15          0.6920    -6.8390    -5.6980 ca         1 SPI      -0.074000
     24 C16          1.7550    -7.2620    -6.4740 ca         1 SPI      -0.106000
     25 C17          1.9140    -6.7670    -7.7550 ca         1 SPI      -0.089000
     26 C18          1.0120    -5.8500    -8.2590 ca         1 SPI      -0.106000
     27 C19         -0.0520    -5.4310    -7.4840 ca         1 SPI      -0.074000
     28 C20         -2.6350    -1.0020     0.1480 c          1 SPI       0.584100
     29 NA          -3.1030    -1.4700     1.3210 ns         1 SPI      -0.002400
     30 OA          -3.8840    -0.6340     2.1560 oh         1 SPI      -0.430100
     31 OB          -2.8830     0.1350    -0.1950 o          1 SPI      -0.643100
     32 HC21        -1.8310     2.1260     0.5730 ha         1 SPI       0.121000
     33 HC31        -2.5020     4.1140    -0.7190 ha         1 SPI       0.128000
     34 HC51         0.1210     2.9290    -3.8870 ha         1 SPI       0.128000
     35 HC61         0.7900     0.9460    -2.5850 ha         1 SPI       0.121000
     36 HC71        -1.1210     3.7890    -4.8630 h1         1 SPI       0.003033
     37 HC72         0.1910     4.7130    -4.1180 h1         1 SPI       0.003033
     38 HC73        -1.1330     5.5570    -4.9330 h1         1 SPI       0.003033
     39 HC81        -1.7460    -2.8880    -0.3180 h1         1 SPI       0.025700
     40 HC91        -3.3520    -2.5380    -2.0960 h1         1 SPI       0.054200
     41 HC92        -2.6480    -0.9590    -2.4930 h1         1 SPI       0.054200
     42 H101        -0.1840    -1.0660    -3.6030 h1         1 SPI       0.035700
     43 H102         0.4650    -2.7040    -3.8120 h1         1 SPI       0.035700
     44 H111         1.4150    -1.4100    -1.8280 h1         1 SPI       0.035700
     45 H112         0.7130    -2.9900    -1.4280 h1         1 SPI       0.035700
     46 H131        -2.2040    -5.2080    -5.9950 h1         1 SPI       0.012700
     47 H132        -1.6570    -6.2520    -4.6760 h1         1 SPI       0.012700
     48 H151         0.5670    -7.2260    -4.6940 ha         1 SPI       0.106000
     49 H161         2.4620    -7.9820    -6.0800 ha         1 SPI       0.104000
     50 H171         2.7470    -7.0970    -8.3630 ha         1 SPI       0.102000
     51 H181         1.1360    -5.4640    -9.2630 ha         1 SPI       0.104000
     52 H191        -0.7590    -4.7120    -7.8790 ha         1 SPI       0.106000
     53 HNA         -2.9190    -2.4160     1.5920 hn         1 SPI       0.150500
     54 HOA         -4.4640    -1.1640     2.6770 ho         1 SPI       0.385000
@<TRIPOS>BOND
     1     1     2 2   
     2     1     3 2   
     3     1     4 1   
     4     1    12 1   
     5     4     5 ar  
     6     4     9 ar  
     7     5     6 ar  
     8     5    32 1   
     9     6     7 ar  
    10     6    33 1   
    11     7     8 ar  
    12     7    10 1   
    13     8     9 ar  
    14     8    34 1   
    15     9    35 1   
    16    10    11 1   
    17    11    36 1   
    18    11    37 1   
    19    11    38 1   
    20    12    13 1   
    21    12    17 1   
    22    13    14 1   
    23    13    28 1   
    24    13    39 1   
    25    14    15 1   
    26    14    40 1   
    27    14    41 1   
    28    15    16 1   
    29    15    18 1   
    30    16    17 1   
    31    16    42 1   
    32    16    43 1   
    33    17    44 1   
    34    17    45 1   
    35    18    19 2   
    36    18    20 1   
    37    20    21 1   
    38    21    22 1   
    39    21    46 1   
    40    21    47 1   
    41    22    23 ar  
    42    22    27 ar  
    43    23    24 ar  
    44    23    48 1   
    45    24    25 ar  
    46    24    49 1   
    47    25    26 ar  
    48    25    50 1   
    49    26    27 ar  
    50    26    51 1   
    51    27    52 1   
    52    28    29 1   
    53    28    31 2   
    54    29    30 1   
    55    29    53 1   
    56    30    54 1   
@<TRIPOS>SUBSTRUCTURE
     1 SPI         1 TEMP              0 ****  ****    0 ROOT
