@<TRIPOS>MOLECULE
SPJ
   48    47     1     0     0
SMALL
bcc


@<TRIPOS>ATOM
      1 N1B          0.0000     0.0000     0.0000 nz         1 SPJ       0.062400
      2 C1C          1.4690     0.0000     0.0000 c3         1 SPJ      -0.072500
      3 C1A          1.9780     0.0000     1.4420 c3         1 SPJ      -0.001100
      4 C1D          1.9790     1.2480    -0.7220 c3         1 SPJ      -0.045400
      5 C1E          1.5750     1.1860    -2.1970 c3         1 SPJ       0.137800
      6 N1F          2.0660     2.3850    -2.8890 n7         1 SPJ      -0.568700
      7 C1G          1.6950     2.3600    -4.3110 c3         1 SPJ       0.144800
      8 C1H          2.2220     3.6210    -4.9970 c3         1 SPJ      -0.025400
      9 C1I          1.8360     3.5960    -6.4780 c3         1 SPJ      -0.025400
     10 C1J          2.3630     4.8570    -7.1640 c3         1 SPJ       0.144800
     11 N1K          1.9930     4.8320    -8.5860 n7         1 SPJ      -0.568700
     12 C1L          2.4830     6.0300    -9.2780 c3         1 SPJ       0.137800
     13 C1M          2.0790     5.9690   -10.7530 c3         1 SPJ      -0.045400
     14 C1N          2.5900     7.2180   -11.4740 c3         1 SPJ      -0.072500
     15 C1P          2.2950     7.0980   -12.9710 c3         1 SPJ      -0.001100
     16 N1O          1.9130     8.4050   -10.9360 nz         1 SPJ       0.062400
     17 HN1B        -0.3340    -0.3760    -0.8650 hn         1 SPJ       0.228633
     18 HN1A        -0.3340     0.9370     0.1070 hn         1 SPJ       0.228633
     19 H1C          1.8290    -0.8850    -0.5100 hx         1 SPJ       0.093700
     20 H1A          1.6580    -0.9080     1.9390 hc         1 SPJ       0.041200
     21 H1AA         3.0600     0.0500     1.4430 hc         1 SPJ       0.041200
     22 H1AB         1.5770     0.8590     1.9670 hc         1 SPJ       0.041200
     23 H1D          3.0590     1.2930    -0.6450 hc         1 SPJ       0.060450
     24 H1DA         1.5480     2.1310    -0.2660 hc         1 SPJ       0.060450
     25 H1E          2.0070     0.3040    -2.6530 h1         1 SPJ       0.001450
     26 H1EA         0.4960     1.1410    -2.2740 h1         1 SPJ       0.001450
     27 HN1F         1.6790     3.2010    -2.4570 hn         1 SPJ       0.263800
     28 H1G          0.6160     2.3230    -4.4020 h1         1 SPJ       0.012950
     29 H1GA         2.1280     1.4850    -4.7820 h1         1 SPJ       0.012950
     30 H1H          1.7900     4.4960    -4.5260 hc         1 SPJ       0.025700
     31 H1HA         3.3010     3.6580    -4.9060 hc         1 SPJ       0.025700
     32 H1I          2.2680     2.7210    -6.9490 hc         1 SPJ       0.025700
     33 H1IA         0.7570     3.5590    -6.5690 hc         1 SPJ       0.025700
     34 H1J          1.9310     5.7320    -6.6930 h1         1 SPJ       0.012950
     35 H1JA         3.4420     4.8930    -7.0720 h1         1 SPJ       0.012950
     36 HN1K         2.3800     4.0160    -9.0170 hn         1 SPJ       0.263800
     37 H1L          3.5630     6.0760    -9.2010 h1         1 SPJ       0.001450
     38 H1LA         2.0510     6.9130    -8.8220 h1         1 SPJ       0.001450
     39 H1M          1.0000     5.9230   -10.8300 hc         1 SPJ       0.060450
     40 H1MA         2.5110     5.0860   -11.2090 hc         1 SPJ       0.060450
     41 H1N          3.6580     7.3110   -11.3230 hx         1 SPJ       0.093700
     42 H1P          2.7850     6.2160   -13.3660 hc         1 SPJ       0.041200
     43 H1PA         1.2260     7.0140   -13.1230 hc         1 SPJ       0.041200
     44 H1PB         2.6650     7.9770   -13.4840 hc         1 SPJ       0.041200
     45 HN1O         2.3810     8.7080   -10.1050 hn         1 SPJ       0.228633
     46 HN1C         1.9350     9.1390   -11.6170 hn         1 SPJ       0.228633
     47 H1B3        -0.3340    -0.5620     0.7580 hn         1 SPJ       0.228633
     48 H1O3         0.9620     8.1790   -10.7210 hn         1 SPJ       0.228633
@<TRIPOS>BOND
     1     1     2 1   
     2     1    17 1   
     3     1    18 1   
     4     1    47 1   
     5     2     3 1   
     6     2     4 1   
     7     2    19 1   
     8     3    20 1   
     9     3    21 1   
    10     3    22 1   
    11     4     5 1   
    12     4    23 1   
    13     4    24 1   
    14     5     6 1   
    15     5    25 1   
    16     5    26 1   
    17     6     7 1   
    18     6    27 1   
    19     7     8 1   
    20     7    28 1   
    21     7    29 1   
    22     8     9 1   
    23     8    30 1   
    24     8    31 1   
    25     9    10 1   
    26     9    32 1   
    27     9    33 1   
    28    10    11 1   
    29    10    34 1   
    30    10    35 1   
    31    11    12 1   
    32    11    36 1   
    33    12    13 1   
    34    12    37 1   
    35    12    38 1   
    36    13    14 1   
    37    13    39 1   
    38    13    40 1   
    39    14    15 1   
    40    14    16 1   
    41    14    41 1   
    42    15    42 1   
    43    15    43 1   
    44    15    44 1   
    45    16    45 1   
    46    16    46 1   
    47    16    48 1   
@<TRIPOS>SUBSTRUCTURE
     1 SPJ         1 TEMP              0 ****  ****    0 ROOT
