@<TRIPOS>MOLECULE
molecule
   44    43     1     0     0
SMALL
bcc


@<TRIPOS>ATOM
      1 N1           0.0000     0.0000     0.0000 nz         1 SPK      -0.807100
      2 C2           1.4690     0.0000     0.0000 c3         1 SPK       0.112300
      3 C3           1.9790     0.0000     1.4420 c3         1 SPK      -0.148400
      4 C4           3.5090    -0.0000     1.4420 c3         1 SPK       0.107800
      5 N5           3.9980    -0.0000     2.8280 ny         1 SPK      -0.734000
      6 C6           5.4670    -0.0000     2.8280 c3         1 SPK       0.101300
      7 C7           5.9770     0.0000     4.2700 c3         1 SPK      -0.105400
      8 C8           7.5070    -0.0000     4.2700 c3         1 SPK      -0.105400
      9 C9           8.0170     0.0000     5.7120 c3         1 SPK       0.101300
     10 N10          9.4860    -0.0000     5.7120 ny         1 SPK      -0.734000
     11 C11          9.9760     0.0000     7.0980 c3         1 SPK       0.107800
     12 C12         11.5060    -0.0000     7.0980 c3         1 SPK      -0.148400
     13 C13         12.0160     0.0000     8.5400 c3         1 SPK       0.112300
     14 N14         13.4850    -0.0000     8.5400 nz         1 SPK      -0.807100
     15 H1A         -0.3340     0.0000    -0.9440 hn         1 SPK       0.478633
     16 H1B         -0.3340     0.8170     0.4720 hn         1 SPK       0.478633
     17 H1C         -0.3340    -0.8170     0.4720 hn         1 SPK       0.478633
     18 H2A          1.8300     0.8850    -0.5110 hx         1 SPK       0.130700
     19 H2B          1.8300    -0.8850    -0.5110 hx         1 SPK       0.130700
     20 H3A          1.6180    -0.8850     1.9530 hc         1 SPK       0.090700
     21 H3B          1.6180     0.8850     1.9530 hc         1 SPK       0.090700
     22 H4A          3.8700    -0.8850     0.9310 hx         1 SPK       0.127700
     23 H4B          3.8700     0.8850     0.9310 hx         1 SPK       0.127700
     24 H5A          3.6650    -0.8170     3.3000 hn         1 SPK       0.463300
     25 H5B          3.6650     0.8170     3.3000 hn         1 SPK       0.463300
     26 H6A          5.8290    -0.8850     2.3170 hx         1 SPK       0.122700
     27 H6B          5.8290     0.8850     2.3170 hx         1 SPK       0.122700
     28 H7A          5.6160    -0.8850     4.7810 hc         1 SPK       0.084700
     29 H7B          5.6160     0.8850     4.7810 hc         1 SPK       0.084700
     30 H8A          7.8680     0.8850     3.7590 hc         1 SPK       0.084700
     31 H8B          7.8680    -0.8850     3.7590 hc         1 SPK       0.084700
     32 H9A          7.6560     0.8850     6.2230 hx         1 SPK       0.122700
     33 H9B          7.6560    -0.8850     6.2230 hx         1 SPK       0.122700
     34 H101         9.8200    -0.8170     5.2410 hn         1 SPK       0.463300
     35 H102         9.8200     0.8170     5.2410 hn         1 SPK       0.463300
     36 H111         9.6150    -0.8850     7.6090 hx         1 SPK       0.127700
     37 H112         9.6150     0.8850     7.6090 hx         1 SPK       0.127700
     38 H121        11.8670    -0.8850     6.5870 hc         1 SPK       0.090700
     39 H122        11.8670     0.8850     6.5870 hc         1 SPK       0.090700
     40 H131        11.6550    -0.8850     9.0510 hx         1 SPK       0.130700
     41 H132        11.6550     0.8850     9.0510 hx         1 SPK       0.130700
     42 H141        13.8180     0.8170     8.0690 hn         1 SPK       0.478633
     43 H142        13.8180    -0.0000     9.4840 hn         1 SPK       0.478633
     44 H143        13.8180    -0.8170     8.0690 hn         1 SPK       0.478633
@<TRIPOS>BOND
     1     1     2 1
     2     1    15 1
     3     1    16 1
     4     1    17 1
     5     2     3 1
     6     2    18 1
     7     2    19 1
     8     3     4 1
     9     3    20 1
    10     3    21 1
    11     4     5 1
    12     4    22 1
    13     4    23 1
    14     5     6 1
    15     5    24 1
    16     5    25 1
    17     6     7 1
    18     6    26 1
    19     6    27 1
    20     7     8 1
    21     7    28 1
    22     7    29 1
    23     8     9 1
    24     8    30 1
    25     8    31 1
    26     9    10 1
    27     9    32 1
    28     9    33 1
    29    10    11 1
    30    10    34 1
    31    10    35 1
    32    11    12 1
    33    11    36 1
    34    11    37 1
    35    12    13 1
    36    12    38 1
    37    12    39 1
    38    13    14 1
    39    13    40 1
    40    13    41 1
    41    14    42 1
    42    14    43 1
    43    14    44 1
@<TRIPOS>SUBSTRUCTURE
     1 SPK         1 TEMP              0 ****  ****    0 ROOT
