@<TRIPOS>MOLECULE
SPL
   81    82     1     0     0
SMALL
bcc


@<TRIPOS>ATOM
      1 C1           0.0000     0.0000     0.0000 c3         1 SPL       0.055000
      2 O1          -0.4770     1.2220     0.5650 oh         1 SPL      -0.334000
      3 C2           1.5310     0.0000     0.0000 c3         1 SPL      -0.107000
      4 N2           2.0180     0.0000     1.3810 ns         1 SPL       0.014000
      5 C3           2.0390     1.2490    -0.7220 DU         1 SPL       0.189000
      6 O3           1.5810     1.2390    -2.0740 oh         1 SPL      -0.304000
      7 C4           3.5460     1.2610    -0.7030 c2         1 SPL      -0.234000
      8 C5           4.2150     1.2590    -1.8290 c2         1 SPL      -0.097000
      9 C6           5.7220     1.2720    -1.8100 DU         1 SPL      -0.008000
     10 C7           6.2500     0.0220    -2.5170 c3         1 SPL      -0.142000
     11 C8           7.7800     0.0340    -2.4980 c3         1 SPL      -0.105000
     12 C9           8.3090    -1.2140    -3.2060 c3         1 SPL      -0.108000
     13 C10          9.8390    -1.2030    -3.1860 c3         1 SPL      -0.107000
     14 C11         10.3680    -2.4520    -3.8940 c3         1 SPL      -0.108000
     15 C12         11.8970    -2.4400    -3.8750 c3         1 SPL      -0.108000
     16 C13         12.4260    -3.6880    -4.5830 c3         1 SPL      -0.108000
     17 C14         13.9550    -3.6760    -4.5640 c3         1 SPL      -0.108000
     18 C15         14.4850    -4.9250    -5.2710 c3         1 SPL      -0.108000
     19 C16         16.0140    -4.9140    -5.2530 c3         1 SPL      -0.109000
     20 C17         16.5440    -6.1620    -5.9600 c3         1 SPL      -0.107000
     21 C18         18.0730    -6.1500    -5.9400 c3         1 SPL      -0.112000
     22 C19          2.2440    -1.1660     2.0170 c2         1 SPL       0.216000
     23 O19          2.0420    -2.2170     1.4450 o          1 SPL      -0.417000
     24 C20          2.7460    -1.1660     3.4360 c3         1 SPL      -0.125000
     25 C21          2.9170    -2.6070     3.9180 c3         1 SPL      -0.094000
     26 C22          3.4260    -2.6080     5.3600 c3         1 SPL      -0.111000
     27 C23          3.5970    -4.0490     5.8420 c3         1 SPL      -0.106000
     28 C24          4.1070    -4.0500     7.2830 c3         1 SPL      -0.109000
     29 C25          4.2780    -5.4910     7.7660 c3         1 SPL      -0.107000
     30 C26          4.7880    -5.4920     9.2070 c3         1 SPL      -0.111000
     31 H11         -0.3610    -0.0920    -1.0170 h1         1 SPL       0.045500
     32 H12         -0.3610    -0.8350     0.5880 h1         1 SPL       0.045500
     33 HO1         -1.4190     1.2280     0.5510 ho         1 SPL       0.195000
     34 H2           1.8920    -0.8840    -0.5110 h1         1 SPL       0.120000
     35 HN2          2.1680     0.8670     1.8590 hn         1 SPL       0.098000
     36 H3           1.6650     2.1340    -0.2200 ha         1 SPL       0.038000
     37 HO3          1.2640     2.0960    -2.3050 ho         1 SPL       0.205000
     38 H4           2.9430     0.3800    -0.8900 DU         1 SPL       0.049000
     39 H5           4.8320     0.3900    -1.6310 DU         1 SPL       0.056000
     40 H61          6.0710     1.2810    -0.7840 ha         1 SPL       0.060500
     41 H62          6.0830     2.1560    -2.3220 ha         1 SPL       0.060500
     42 H71          5.8900    -0.8620    -2.0060 hc         1 SPL       0.065500
     43 H72          5.9020     0.0130    -3.5430 hc         1 SPL       0.065500
     44 H81          8.1400     0.9190    -3.0080 hc         1 SPL       0.055500
     45 H82          8.1280     0.0420    -1.4720 hc         1 SPL       0.055500
     46 H91          7.9610    -1.2220    -4.2320 hc         1 SPL       0.056000
     47 H92          7.9480    -2.0990    -2.6960 hc         1 SPL       0.056000
     48 H101        10.2000    -0.3180    -3.6970 hc         1 SPL       0.054000
     49 H102        10.1870    -1.1950    -2.1600 hc         1 SPL       0.054000
     50 H111        10.0200    -2.4600    -4.9200 hc         1 SPL       0.054500
     51 H112        10.0070    -3.3360    -3.3840 hc         1 SPL       0.054500
     52 H121        12.2450    -2.4320    -2.8490 hc         1 SPL       0.054000
     53 H122        12.2580    -1.5550    -4.3860 hc         1 SPL       0.054000
     54 H131        12.0660    -4.5730    -4.0730 hc         1 SPL       0.054000
     55 H132        12.0780    -3.6960    -5.6090 hc         1 SPL       0.054000
     56 H141        14.3160    -2.7910    -5.0750 hc         1 SPL       0.054000
     57 H142        14.3030    -3.6670    -3.5380 hc         1 SPL       0.054000
     58 H151        14.1240    -5.8090    -4.7600 hc         1 SPL       0.054000
     59 H152        14.1360    -4.9340    -6.2970 hc         1 SPL       0.054000
     60 H161        16.3630    -4.9060    -4.2270 hc         1 SPL       0.054000
     61 H162        16.3750    -4.0290    -5.7630 hc         1 SPL       0.054000
     62 H171        16.1960    -6.1690    -6.9860 hc         1 SPL       0.051000
     63 H172        16.1830    -7.0460    -5.4500 hc         1 SPL       0.051000
     64 H181        18.4480    -7.0340    -6.4430 hc         1 SPL       0.039333
     65 H182        18.4350    -5.2650    -6.4500 hc         1 SPL       0.039333
     66 H183        18.4210    -6.1440    -4.9140 hc         1 SPL       0.039333
     67 H201         2.0320    -0.6550     4.0710 hc         1 SPL       0.067500
     68 H202         3.7000    -0.6550     3.4810 hc         1 SPL       0.067500
     69 H211         3.6300    -3.1180     3.2830 hc         1 SPL       0.069000
     70 H212         1.9630    -3.1180     3.8720 hc         1 SPL       0.069000
     71 H221         4.3800    -2.0970     5.4050 hc         1 SPL       0.051000
     72 H222         2.7130    -2.0970     5.9950 hc         1 SPL       0.051000
     73 H231         2.6430    -4.5600     5.7960 hc         1 SPL       0.056000
     74 H232         4.3110    -4.5590     5.2060 hc         1 SPL       0.056000
     75 H241         5.0610    -3.5380     7.3290 hc         1 SPL       0.053000
     76 H242         3.3930    -3.5390     7.9180 hc         1 SPL       0.053000
     77 H251         3.3240    -6.0030     7.7200 hc         1 SPL       0.052000
     78 H252         4.9920    -6.0020     7.1310 hc         1 SPL       0.052000
     79 H261         5.7430    -4.9840     9.2530 hc         1 SPL       0.038667
     80 H262         4.9060    -6.5130     9.5480 hc         1 SPL       0.038667
     81 H263         4.0760    -4.9790     9.8420 hc         1 SPL       0.038667
@<TRIPOS>BOND
     1     1     2 1   
     2     1     3 1   
     3     1    31 1   
     4     1    32 1   
     5     2    33 1   
     6     3     4 1   
     7     3     5 1   
     8     3    34 1   
     9     4    22 1   
    10     4    35 1   
    11     5     6 1   
    12     5     7 1   
    13     5    36 1   
    14     5    38 1   
    15     6    37 1   
    16     7     8 1   
    17     7    38 1   
    18     8     9 1   
    19     8    39 1   
    20     9    10 1   
    21     9    39 1   
    22     9    40 1   
    23     9    41 1   
    24    10    11 1   
    25    10    42 1   
    26    10    43 1   
    27    11    12 1   
    28    11    44 1   
    29    11    45 1   
    30    12    13 1   
    31    12    46 1   
    32    12    47 1   
    33    13    14 1   
    34    13    48 1   
    35    13    49 1   
    36    14    15 1   
    37    14    50 1   
    38    14    51 1   
    39    15    16 1   
    40    15    52 1   
    41    15    53 1   
    42    16    17 1   
    43    16    54 1   
    44    16    55 1   
    45    17    18 1   
    46    17    56 1   
    47    17    57 1   
    48    18    19 1   
    49    18    58 1   
    50    18    59 1   
    51    19    20 1   
    52    19    60 1   
    53    19    61 1   
    54    20    21 1   
    55    20    62 1   
    56    20    63 1   
    57    21    64 1   
    58    21    65 1   
    59    21    66 1   
    60    22    23 1   
    61    22    24 1   
    62    24    25 1   
    63    24    67 1   
    64    24    68 1   
    65    25    26 1   
    66    25    69 1   
    67    25    70 1   
    68    26    27 1   
    69    26    71 1   
    70    26    72 1   
    71    27    28 1   
    72    27    73 1   
    73    27    74 1   
    74    28    29 1   
    75    28    75 1   
    76    28    76 1   
    77    29    30 1   
    78    29    77 1   
    79    29    78 1   
    80    30    79 1   
    81    30    80 1   
    82    30    81 1   
@<TRIPOS>SUBSTRUCTURE
     1 SPL         1 TEMP              0 ****  ****    0 ROOT
