@<TRIPOS>MOLECULE
molecule
   81    80     1     0     0
SMALL
bcc


@<TRIPOS>ATOM
      1 C1           0.0000     0.0000     0.0000 c3         1 SPL       0.120400
      2 O1          -0.4770     1.2220     0.5650 oh         1 SPL      -0.626800
      3 C2           1.5310     0.0000     0.0000 c3         1 SPL       0.123700
      4 N2           2.0180     0.0000     1.3810 ns         1 SPL      -0.576900
      5 C3           2.0390     1.2490    -0.7220 c3         1 SPL       0.174300
      6 O3           1.5810     1.2390    -2.0740 oh         1 SPL      -0.601800
      7 C4           3.5460     1.2610    -0.7030 c2         1 SPL      -0.220200
      8 C5           4.2150     1.2590    -1.8290 c2         1 SPL      -0.145200
      9 C6           5.7220     1.2720    -1.8100 c3         1 SPL      -0.051200
     10 C7           6.2500     0.0220    -2.5170 c3         1 SPL      -0.077400
     11 C8           7.7800     0.0340    -2.4980 c3         1 SPL      -0.082400
     12 C9           8.3090    -1.2140    -3.2060 c3         1 SPL      -0.081400
     13 C10          9.8390    -1.2030    -3.1860 c3         1 SPL      -0.082400
     14 C11         10.3680    -2.4520    -3.8940 c3         1 SPL      -0.081400
     15 C12         11.8970    -2.4400    -3.8750 c3         1 SPL      -0.081400
     16 C13         12.4260    -3.6880    -4.5830 c3         1 SPL      -0.081400
     17 C14         13.9550    -3.6760    -4.5640 c3         1 SPL      -0.082400
     18 C15         14.4850    -4.9250    -5.2710 c3         1 SPL      -0.082400
     19 C16         16.0140    -4.9140    -5.2530 c3         1 SPL      -0.081400
     20 C17         16.5440    -6.1620    -5.9600 c3         1 SPL      -0.084400
     21 C18         18.0730    -6.1500    -5.9400 c3         1 SPL      -0.092100
     22 C19          2.2440    -1.1660     2.0170 c          1 SPL       0.658100
     23 O19          2.0420    -2.2170     1.4450 o          1 SPL      -0.614100
     24 C20          2.7460    -1.1660     3.4360 c3         1 SPL      -0.157400
     25 C21          2.9170    -2.6070     3.9180 c3         1 SPL      -0.066400
     26 C22          3.4260    -2.6080     5.3600 c3         1 SPL      -0.085400
     27 C23          3.5970    -4.0490     5.8420 c3         1 SPL      -0.080400
     28 C24          4.1070    -4.0500     7.2830 c3         1 SPL      -0.082400
     29 C25          4.2780    -5.4910     7.7660 c3         1 SPL      -0.083400
     30 C26          4.7880    -5.4920     9.2070 c3         1 SPL      -0.092100
     31 H11         -0.3610    -0.8350     0.5880 h1         1 SPL       0.040200
     32 H12         -0.3610    -0.0920    -1.0170 h1         1 SPL       0.040200
     33 HO1         -1.4190     1.2090     0.5940 ho         1 SPL       0.405000
     34 H2           1.8920    -0.8840    -0.5110 h1         1 SPL       0.104700
     35 HN2          2.1730     0.8670     1.8570 hn         1 SPL       0.317500
     36 H3           1.6650     2.1340    -0.2200 h1         1 SPL       0.054700
     37 HO3          1.2640     2.0960    -2.3050 ho         1 SPL       0.408000
     38 H4           4.0750     1.2720     0.2420 ha         1 SPL       0.128000
     39 H5           3.6860     1.2490    -2.7740 ha         1 SPL       0.143000
     40 H61          6.0710     1.2810    -0.7840 hc         1 SPL       0.044700
     41 H62          6.0830     2.1560    -2.3210 hc         1 SPL       0.044700
     42 H71          5.8900    -0.8620    -2.0060 hc         1 SPL       0.046200
     43 H72          5.9020     0.0130    -3.5430 hc         1 SPL       0.046200
     44 H81          8.1400     0.9190    -3.0080 hc         1 SPL       0.040200
     45 H82          8.1280     0.0420    -1.4720 hc         1 SPL       0.040200
     46 H91          7.9610    -1.2220    -4.2320 hc         1 SPL       0.042200
     47 H92          7.9480    -2.0990    -2.6950 hc         1 SPL       0.042200
     48 H101        10.2000    -0.3180    -3.6970 hc         1 SPL       0.040700
     49 H102        10.1870    -1.1950    -2.1600 hc         1 SPL       0.040700
     50 H111        10.0200    -2.4600    -4.9200 hc         1 SPL       0.041200
     51 H112        10.0070    -3.3360    -3.3840 hc         1 SPL       0.041200
     52 H121        12.2580    -1.5550    -4.3860 hc         1 SPL       0.040700
     53 H122        12.2450    -2.4320    -2.8490 hc         1 SPL       0.040700
     54 H131        12.0660    -4.5730    -4.0730 hc         1 SPL       0.041200
     55 H132        12.0780    -3.6960    -5.6090 hc         1 SPL       0.041200
     56 H141        14.3030    -3.6670    -3.5380 hc         1 SPL       0.040700
     57 H142        14.3160    -2.7910    -5.0750 hc         1 SPL       0.040700
     58 H151        14.1360    -4.9340    -6.2970 hc         1 SPL       0.040700
     59 H152        14.1240    -5.8090    -4.7600 hc         1 SPL       0.040700
     60 H161        16.3750    -4.0290    -5.7630 hc         1 SPL       0.040700
     61 H162        16.3630    -4.9060    -4.2270 hc         1 SPL       0.040700
     62 H171        16.1960    -6.1690    -6.9860 hc         1 SPL       0.039700
     63 H172        16.1830    -7.0460    -5.4500 hc         1 SPL       0.039700
     64 H181        18.4480    -7.0420    -6.4290 hc         1 SPL       0.032367
     65 H182        18.4210    -6.1270    -4.9140 hc         1 SPL       0.032367
     66 H183        18.4350    -5.2730    -6.4640 hc         1 SPL       0.032367
     67 H201         2.0320    -0.6550     4.0710 hc         1 SPL       0.059200
     68 H202         3.7000    -0.6550     3.4810 hc         1 SPL       0.059200
     69 H211         3.6300    -3.1180     3.2830 hc         1 SPL       0.058200
     70 H212         1.9630    -3.1180     3.8720 hc         1 SPL       0.058200
     71 H221         4.3800    -2.0970     5.4050 hc         1 SPL       0.038200
     72 H222         2.7130    -2.0970     5.9950 hc         1 SPL       0.038200
     73 H231         4.3110    -4.5590     5.2060 hc         1 SPL       0.043700
     74 H232         2.6430    -4.5600     5.7960 hc         1 SPL       0.043700
     75 H241         3.3930    -3.5390     7.9180 hc         1 SPL       0.039700
     76 H242         5.0610    -3.5380     7.3290 hc         1 SPL       0.039700
     77 H251         3.3240    -6.0030     7.7200 hc         1 SPL       0.040700
     78 H252         4.9920    -6.0020     7.1310 hc         1 SPL       0.040700
     79 H261         4.0500    -5.0300     9.8520 hc         1 SPL       0.032367
     80 H262         4.9600    -6.5120     9.5290 hc         1 SPL       0.032367
     81 H263         5.7150    -4.9340     9.2630 hc         1 SPL       0.032367
@<TRIPOS>BOND
     1     1     2 1
     2     1     3 1
     3     1    31 1
     4     1    32 1
     5     2    33 1
     6     3     4 1
     7     3     5 1
     8     3    34 1
     9     4    22 1
    10     4    35 1
    11     5     6 1
    12     5     7 1
    13     5    36 1
    14     6    37 1
    15     7     8 2
    16     7    38 1
    17     8     9 1
    18     8    39 1
    19     9    10 1
    20     9    40 1
    21     9    41 1
    22    10    11 1
    23    10    42 1
    24    10    43 1
    25    11    12 1
    26    11    44 1
    27    11    45 1
    28    12    13 1
    29    12    46 1
    30    12    47 1
    31    13    14 1
    32    13    48 1
    33    13    49 1
    34    14    15 1
    35    14    50 1
    36    14    51 1
    37    15    16 1
    38    15    52 1
    39    15    53 1
    40    16    17 1
    41    16    54 1
    42    16    55 1
    43    17    18 1
    44    17    56 1
    45    17    57 1
    46    18    19 1
    47    18    58 1
    48    18    59 1
    49    19    20 1
    50    19    60 1
    51    19    61 1
    52    20    21 1
    53    20    62 1
    54    20    63 1
    55    21    64 1
    56    21    65 1
    57    21    66 1
    58    22    23 2
    59    22    24 1
    60    24    25 1
    61    24    67 1
    62    24    68 1
    63    25    26 1
    64    25    69 1
    65    25    70 1
    66    26    27 1
    67    26    71 1
    68    26    72 1
    69    27    28 1
    70    27    73 1
    71    27    74 1
    72    28    29 1
    73    28    75 1
    74    28    76 1
    75    29    30 1
    76    29    77 1
    77    29    78 1
    78    30    79 1
    79    30    80 1
    80    30    81 1
@<TRIPOS>SUBSTRUCTURE
     1 SPL         1 TEMP              0 ****  ****    0 ROOT
