@<TRIPOS>MOLECULE
molecule
   42    41     1     0     0
SMALL
bcc


@<TRIPOS>ATOM
      1 N1           0.0000     0.0000     0.0000 nz         1 SPM      -0.809600
      2 C2           1.4680     0.0000     0.0000 c3         1 SPM       0.091800
      3 C3           1.9800     0.0000     1.4410 c3         1 SPM      -0.115400
      4 C4           3.5100    -0.0000     1.4400 c3         1 SPM       0.156800
      5 N5           4.0020     0.0000     2.8240 n7         1 SPM      -0.794200
      6 C6           5.4680    -0.0000     2.7530 c3         1 SPM       0.147800
      7 C7           6.0490    -0.0010     4.1670 c3         1 SPM      -0.082400
      8 C8           7.5760    -0.0010     4.0920 c3         1 SPM      -0.082400
      9 C9           8.1570    -0.0000     5.5070 c3         1 SPM       0.147800
     10 N10          9.6240    -0.0010     5.4350 n7         1 SPM      -0.794200
     11 C11         10.1150    -0.0010     6.8190 c3         1 SPM       0.156800
     12 C12         11.6450    -0.0010     6.8180 c3         1 SPM      -0.115400
     13 C13         12.1560    -0.0010     8.2590 c3         1 SPM       0.091800
     14 N14         13.6250    -0.0020     8.2580 nz         1 SPM      -0.809600
     15 HN11        -0.3340     0.8390     0.4320 hn         1 SPM       0.459800
     16 HN12        -0.3340    -0.0460    -0.9420 hn         1 SPM       0.459800
     17 H21          1.8290     0.8840    -0.5110 hx         1 SPM       0.113200
     18 H22          1.8290    -0.8840    -0.5110 hx         1 SPM       0.113200
     19 H31          1.6200     0.8850     1.9520 hc         1 SPM       0.073700
     20 H32          1.6190    -0.8840     1.9520 hc         1 SPM       0.073700
     21 H41          3.8700    -0.8850     0.9300 h1         1 SPM       0.048700
     22 H42          3.8710     0.8840     0.9290 h1         1 SPM       0.048700
     23 HN5          3.6900     0.8300     3.2880 hn         1 SPM       0.358800
     24 H61          5.8030    -0.8850     2.2240 h1         1 SPM       0.043200
     25 H62          5.8040     0.8840     2.2250 h1         1 SPM       0.043200
     26 H71          5.7140    -0.8860     4.6950 hc         1 SPM       0.055200
     27 H72          5.7140     0.8830     4.6960 hc         1 SPM       0.055200
     28 H81          7.9110     0.8830     3.5630 hc         1 SPM       0.055200
     29 H82          7.9110    -0.8850     3.5640 hc         1 SPM       0.055200
     30 H91          7.8220     0.8840     6.0340 h1         1 SPM       0.043200
     31 H92          7.8210    -0.8850     6.0350 h1         1 SPM       0.043200
     32 HN0          9.9350    -0.8310     4.9700 hn         1 SPM       0.358800
     33 H111         9.7550    -0.8860     7.3300 h1         1 SPM       0.048700
     34 H112         9.7540     0.8830     7.3300 h1         1 SPM       0.048700
     35 H121        12.0050     0.8840     6.3080 hc         1 SPM       0.073700
     36 H122        12.0060    -0.8850     6.3070 hc         1 SPM       0.073700
     37 H131        11.7960     0.8840     8.7700 hx         1 SPM       0.113200
     38 H132        11.7950    -0.8850     8.7710 hx         1 SPM       0.113200
     39 HN41        13.9590     0.7910     7.7470 hn         1 SPM       0.459800
     40 HN42        13.9580    -0.8410     7.8270 hn         1 SPM       0.459800
     41 H13         -0.3340    -0.7990     0.5020 hn         1 SPM       0.459800
     42 H143        13.9600     0.0550     9.2000 hn         1 SPM       0.459800
@<TRIPOS>BOND
     1     1     2 1
     2     1    15 1
     3     1    16 1
     4     2     3 1
     5     2    17 1
     6     2    18 1
     7     3     4 1
     8     3    19 1
     9     3    20 1
    10     4     5 1
    11     4    21 1
    12     4    22 1
    13     5     6 1
    14     5    23 1
    15     6     7 1
    16     6    24 1
    17     6    25 1
    18     7     8 1
    19     7    26 1
    20     7    27 1
    21     8     9 1
    22     8    28 1
    23     8    29 1
    24     9    10 1
    25     9    30 1
    26     9    31 1
    27    10    11 1
    28    10    32 1
    29    11    12 1
    30    11    33 1
    31    11    34 1
    32    12    13 1
    33    12    35 1
    34    12    36 1
    35    13    14 1
    36    13    37 1
    37    13    38 1
    38    14    39 1
    39    14    40 1
    40    41     1 1
    41    42    14 1
@<TRIPOS>SUBSTRUCTURE
     1 SPM         1 TEMP              0 ****  ****    0 ROOT
