@<TRIPOS>MOLECULE
SPM
   42    41     1     0     0
SMALL
bcc


@<TRIPOS>ATOM
      1 N1           0.0000     0.0000     0.0000 nz         1 SPM       0.088900
      2 C2           1.4680     0.0000     0.0000 c3         1 SPM      -0.050700
      3 C3           1.9800     0.0000     1.4410 c3         1 SPM      -0.039900
      4 C4           3.5100    -0.0000     1.4400 c3         1 SPM       0.150800
      5 N5           4.0020     0.0000     2.8240 n7         1 SPM      -0.569700
      6 C6           5.4680    -0.0000     2.7530 c3         1 SPM       0.139800
      7 C7           6.0490    -0.0010     4.1670 c3         1 SPM      -0.026400
      8 C8           7.5760    -0.0010     4.0920 c3         1 SPM      -0.026400
      9 C9           8.1570    -0.0000     5.5070 c3         1 SPM       0.139800
     10 N10          9.6240    -0.0010     5.4350 n7         1 SPM      -0.569700
     11 C11         10.1150    -0.0010     6.8190 c3         1 SPM       0.150800
     12 C12         11.6450    -0.0010     6.8180 c3         1 SPM      -0.039900
     13 C13         12.1560    -0.0010     8.2590 c3         1 SPM      -0.050700
     14 N14         13.6250    -0.0020     8.2580 nz         1 SPM       0.088900
     15 HN11        -0.3340     0.8390     0.4320 hn         1 SPM       0.225300
     16 HN12        -0.3340    -0.0460    -0.9420 hn         1 SPM       0.225300
     17 H21          1.8290     0.8840    -0.5110 hx         1 SPM       0.086200
     18 H22          1.8290    -0.8840    -0.5110 hx         1 SPM       0.086200
     19 H31          1.6200     0.8850     1.9520 hc         1 SPM       0.039700
     20 H32          1.6190    -0.8840     1.9520 hc         1 SPM       0.039700
     21 H41          3.8700    -0.8850     0.9300 h1         1 SPM       0.020450
     22 H42          3.8710     0.8840     0.9290 h1         1 SPM       0.020450
     23 HN5          3.6900     0.8300     3.2880 hn         1 SPM       0.259800
     24 H61          5.8030    -0.8850     2.2240 h1         1 SPM       0.015700
     25 H62          5.8040     0.8840     2.2250 h1         1 SPM       0.015700
     26 H71          5.7140    -0.8860     4.6950 hc         1 SPM       0.024700
     27 H72          5.7140     0.8830     4.6960 hc         1 SPM       0.024700
     28 H81          7.9110     0.8830     3.5630 hc         1 SPM       0.024700
     29 H82          7.9110    -0.8850     3.5640 hc         1 SPM       0.024700
     30 H91          7.8220     0.8840     6.0340 h1         1 SPM       0.015700
     31 H92          7.8210    -0.8850     6.0350 h1         1 SPM       0.015700
     32 HN0          9.9350    -0.8310     4.9700 hn         1 SPM       0.259800
     33 H111         9.7550    -0.8860     7.3300 h1         1 SPM       0.020450
     34 H112         9.7540     0.8830     7.3300 h1         1 SPM       0.020450
     35 H121        12.0050     0.8840     6.3080 hc         1 SPM       0.039700
     36 H122        12.0060    -0.8850     6.3070 hc         1 SPM       0.039700
     37 H131        11.7960     0.8840     8.7700 hx         1 SPM       0.086200
     38 H132        11.7950    -0.8850     8.7710 hx         1 SPM       0.086200
     39 HN41        13.9590     0.7910     7.7470 hn         1 SPM       0.225300
     40 HN42        13.9580    -0.8410     7.8270 hn         1 SPM       0.225300
     41 H13         -0.3340    -0.7990     0.5020 hn         1 SPM       0.225300
     42 H143        13.9600     0.0550     9.2000 hn         1 SPM       0.225300
@<TRIPOS>BOND
     1     1     2 1   
     2     1    15 1   
     3     1    16 1   
     4     1    41 1   
     5     2     3 1   
     6     2    17 1   
     7     2    18 1   
     8     3     4 1   
     9     3    19 1   
    10     3    20 1   
    11     4     5 1   
    12     4    21 1   
    13     4    22 1   
    14     5     6 1   
    15     5    23 1   
    16     6     7 1   
    17     6    24 1   
    18     6    25 1   
    19     7     8 1   
    20     7    26 1   
    21     7    27 1   
    22     8     9 1   
    23     8    28 1   
    24     8    29 1   
    25     9    10 1   
    26     9    30 1   
    27     9    31 1   
    28    10    11 1   
    29    10    32 1   
    30    11    12 1   
    31    11    33 1   
    32    11    34 1   
    33    12    13 1   
    34    12    35 1   
    35    12    36 1   
    36    13    14 1   
    37    13    37 1   
    38    13    38 1   
    39    14    39 1   
    40    14    40 1   
    41    14    42 1   
@<TRIPOS>SUBSTRUCTURE
     1 SPM         1 TEMP              0 ****  ****    0 ROOT
