@<TRIPOS>MOLECULE
molecule
  113   112     1     0     0
SMALL
bcc


@<TRIPOS>ATOM
      1 CMA          0.0000     0.0000     0.0000 c3         1 SPN       0.108700
      2 O1           1.4290     0.0000     0.0000 os         1 SPN      -0.405600
      3 CM1          1.3250     1.2640     2.0550 c3         1 SPN      -0.114600
      4 CM2          1.2730    -1.2330     2.0710 c3         1 SPN      -0.114600
      5 C1           1.8420     0.0000     1.3670 c3         1 SPN       0.037800
      6 C2           3.3470    -0.0310     1.4380 c          1 SPN       0.563100
      7 O2           3.9190     0.4860     2.3660 o          1 SPN      -0.501100
      8 C3           4.1390    -0.7060     0.3480 c3         1 SPN      -0.192200
      9 C4           5.6100    -0.5960     0.6550 c2         1 SPN      -0.483200
     10 C5           6.4020     0.0560    -0.1590 c2         1 SPN       0.031600
     11 CM3          5.8220     0.8280    -1.3160 c3         1 SPN      -0.130900
     12 C6           7.8930     0.0350     0.0610 c3         1 SPN      -0.004200
     13 C7           8.5040    -1.1440    -0.6990 c3         1 SPN      -0.074200
     14 C8           9.9940    -1.1650    -0.4780 c2         1 SPN      -0.512200
     15 C9          10.5790    -2.2580    -0.0570 c2         1 SPN       0.037600
     16 CM4          9.7890    -3.5360     0.0630 c3         1 SPN      -0.131900
     17 C10         12.0410    -2.2390     0.3100 c3         1 SPN      -0.000200
     18 C11         12.1910    -1.8920     1.7910 c3         1 SPN      -0.078200
     19 C12         13.6530    -1.8720     2.1570 c2         1 SPN      -0.540200
     20 C13         14.1610    -0.8310     2.7680 c2         1 SPN       0.034600
     21 CM5         13.3090     0.3850     3.0200 c3         1 SPN      -0.136900
     22 C14         15.5990    -0.8500     3.2200 c3         1 SPN      -0.042200
     23 C15         16.4910    -0.3090     2.1010 c3         1 SPN      -0.071400
     24 C16         17.9510    -0.3270     2.5590 c3         1 SPN      -0.077400
     25 C17         18.8430     0.2140     1.4400 c3         1 SPN      -0.038200
     26 C18         20.2800     0.1950     1.8910 c2         1 SPN      -0.130400
     27 CM6         20.8650     1.3930     2.5950 c3         1 SPN      -0.051900
     28 C19         21.0220    -0.8610     1.6720 c2         1 SPN      -0.179200
     29 C20         22.4880    -0.8400     2.0230 c3         1 SPN      -0.053200
     30 C21         22.8060    -2.0110     2.9550 c3         1 SPN      -0.070400
     31 C22         24.2950    -1.9890     3.3100 c3         1 SPN      -0.085700
     32 CM7         25.1270    -2.1130     2.0330 c3         1 SPN      -0.098100
     33 C23         24.6130    -3.1610     4.2420 c3         1 SPN      -0.029400
     34 C24         26.1010    -3.1390     4.5970 c3         1 SPN      -0.082200
     35 C25         26.4160    -4.2920     5.5140 c2         1 SPN      -0.550200
     36 C26         26.8420    -4.0640     6.7310 c2         1 SPN       0.019600
     37 CM8         26.8630    -2.6560     7.2710 c3         1 SPN      -0.137900
     38 C27         27.3120    -5.2080     7.5920 c3         1 SPN      -0.036200
     39 C28         28.8120    -5.4220     7.3820 c3         1 SPN      -0.043200
     40 C29         29.2820    -6.5660     8.2420 c2         1 SPN      -0.187200
     41 C30         29.7430    -7.6580     7.6870 c2         1 SPN      -0.123400
     42 CM9         30.3610    -8.7350     8.5390 c3         1 SPN      -0.053900
     43 CMB         29.6530    -7.8370     6.1920 c3         1 SPN      -0.053900
     44 HMA1        -0.3610    -0.1420    -1.0110 h1         1 SPN       0.038367
     45 HMA2        -0.3610     0.9470     0.3830 h1         1 SPN       0.038367
     46 HMA3        -0.3610    -0.8050     0.6290 h1         1 SPN       0.038367
     47 HM11         1.4890     2.1190     1.4110 hc         1 SPN       0.053533
     48 HM12         1.8530     1.4090     2.9900 hc         1 SPN       0.053533
     49 HM13         0.2650     1.1600     2.2530 hc         1 SPN       0.053533
     50 HM21         1.1930    -2.0490     1.3630 hc         1 SPN       0.053533
     51 HM22         1.9320    -1.5230     2.8810 hc         1 SPN       0.053533
     52 HM23         0.2920    -1.0020     2.4690 hc         1 SPN       0.053533
     53 H31          3.8580    -1.7510     0.2920 hc         1 SPN       0.087700
     54 H32          3.9310    -0.2250    -0.6000 hc         1 SPN       0.087700
     55 H4           4.9200     0.1930     0.9260 ha         1 SPN       0.328000
     56 HM31         5.1290     1.5720    -0.9420 hc         1 SPN       0.051700
     57 HM32         6.6200     1.3190    -1.8590 hc         1 SPN       0.051700
     58 HM33         5.2990     0.1480    -1.9780 hc         1 SPN       0.051700
     59 H61          8.3240     0.9600    -0.2990 hc         1 SPN       0.068700
     60 H62          8.0990    -0.0720     1.1190 hc         1 SPN       0.068700
     61 H71          8.0720    -2.0690    -0.3380 hc         1 SPN       0.035200
     62 H72          8.2970    -1.0370    -1.7570 hc         1 SPN       0.035200
     63 H8           9.5560    -1.5280    -1.4000 ha         1 SPN       0.320000
     64 HM41        10.4610    -4.3560     0.2860 hc         1 SPN       0.053367
     65 HM42         9.0620    -3.4380     0.8600 hc         1 SPN       0.053367
     66 HM43         9.2770    -3.7330    -0.8710 hc         1 SPN       0.053367
     67 H101        12.5530    -1.4960    -0.2890 hc         1 SPN       0.070200
     68 H102        12.4730    -3.2150     0.1220 hc         1 SPN       0.070200
     69 H111        11.6790    -2.6350     2.3900 hc         1 SPN       0.040200
     70 H112        11.7590    -0.9160     1.9790 hc         1 SPN       0.040200
     71 H12         12.8220    -1.9990     2.8400 ha         1 SPN       0.351000
     72 HM51        12.4530     0.1080     3.6250 hc         1 SPN       0.052033
     73 HM52        13.8920     1.1340     3.5420 hc         1 SPN       0.052033
     74 HM53        12.9670     0.7890     2.0750 hc         1 SPN       0.052033
     75 H141        15.8910    -1.8670     3.4540 hc         1 SPN       0.054200
     76 H142        15.7090    -0.2300     4.1010 hc         1 SPN       0.054200
     77 H151        16.3810    -0.9290     1.2190 hc         1 SPN       0.050200
     78 H152        16.1990     0.7070     1.8660 hc         1 SPN       0.050200
     79 H161        18.0600     0.2920     3.4400 hc         1 SPN       0.044200
     80 H162        18.2430    -1.3440     2.7930 hc         1 SPN       0.044200
     81 H171        18.5520     1.2310     1.2060 hc         1 SPN       0.047700
     82 H172        18.7330    -0.4050     0.5580 hc         1 SPN       0.047700
     83 HM61        20.1150     2.1720     2.6650 hc         1 SPN       0.040033
     84 HM62        21.7160     1.7610     2.0340 hc         1 SPN       0.040033
     85 HM63        21.1840     1.1080     3.5900 hc         1 SPN       0.040033
     86 H19         20.6010    -1.7220     1.1670 ha         1 SPN       0.127000
     87 H201        22.7270     0.0920     2.5210 hc         1 SPN       0.049200
     88 H202        23.0770    -0.9280     1.1180 hc         1 SPN       0.049200
     89 H211        22.2170    -1.9240     3.8600 hc         1 SPN       0.046700
     90 H212        22.5670    -2.9440     2.4570 hc         1 SPN       0.046700
     91 H22         24.5330    -1.0570     3.8080 hc         1 SPN       0.044700
     92 HM71        25.7070    -3.0280     2.0670 hc         1 SPN       0.036700
     93 HM72        25.7950    -1.2640     1.9530 hc         1 SPN       0.036700
     94 HM73        24.4680    -2.1350     1.1730 hc         1 SPN       0.036700
     95 H231        24.0250    -3.0730     5.1480 hc         1 SPN       0.059700
     96 H232        24.3740    -4.0930     3.7450 hc         1 SPN       0.059700
     97 H241        26.6900    -3.2270     3.6920 hc         1 SPN       0.032700
     98 H242        26.3400    -2.2070     5.0940 hc         1 SPN       0.032700
     99 H25         27.1090    -3.5860     5.0730 ha         1 SPN       0.362000
    100 HM81        27.5770    -2.0650     6.7100 hc         1 SPN       0.048367
    101 HM82        27.1500    -2.6740     8.3150 hc         1 SPN       0.048367
    102 HM83        25.8770    -2.2180     7.1750 hc         1 SPN       0.048367
    103 H271        26.7760    -6.1090     7.3190 hc         1 SPN       0.062200
    104 H272        27.1230    -4.9770     8.6340 hc         1 SPN       0.062200
    105 H281        29.0010    -5.6520     6.3400 hc         1 SPN       0.048200
    106 H282        29.3480    -4.5210     7.6550 hc         1 SPN       0.048200
    107 H29         29.3460    -6.4400     9.3160 ha         1 SPN       0.122000
    108 HM91        31.4400    -8.6420     8.5120 hc         1 SPN       0.042200
    109 HM92        30.0150    -8.6300     9.5600 hc         1 SPN       0.042200
    110 HM93        30.0720    -9.7070     8.1580 hc         1 SPN       0.042200
    111 HMB1        30.0600    -8.8030     5.9190 hc         1 SPN       0.042200
    112 HMB2        28.6160    -7.7820     5.8840 hc         1 SPN       0.042200
    113 HMB3        30.2180    -7.0550     5.7000 hc         1 SPN       0.042200
@<TRIPOS>BOND
     1     1     2 1
     2     1    44 1
     3     1    45 1
     4     1    46 1
     5     2     5 1
     6     3     5 1
     7     3    47 1
     8     3    48 1
     9     3    49 1
    10     4     5 1
    11     4    50 1
    12     4    51 1
    13     4    52 1
    14     5     6 1
    15     6     7 2
    16     6     8 1
    17     8     9 1
    18     8    53 1
    19     8    54 1
    20     9    10 2
    21     9    55 1
    22    10    11 1
    23    10    12 1
    24    11    56 1
    25    11    57 1
    26    11    58 1
    27    12    13 1
    28    12    59 1
    29    12    60 1
    30    13    14 1
    31    13    61 1
    32    13    62 1
    33    14    15 2
    34    14    63 1
    35    15    16 1
    36    15    17 1
    37    16    64 1
    38    16    65 1
    39    16    66 1
    40    17    18 1
    41    17    67 1
    42    17    68 1
    43    18    19 1
    44    18    69 1
    45    18    70 1
    46    19    20 2
    47    19    71 1
    48    20    21 1
    49    20    22 1
    50    21    72 1
    51    21    73 1
    52    21    74 1
    53    22    23 1
    54    22    75 1
    55    22    76 1
    56    23    24 1
    57    23    77 1
    58    23    78 1
    59    24    25 1
    60    24    79 1
    61    24    80 1
    62    25    26 1
    63    25    81 1
    64    25    82 1
    65    26    27 1
    66    26    28 2
    67    27    83 1
    68    27    84 1
    69    27    85 1
    70    28    29 1
    71    28    86 1
    72    29    30 1
    73    29    87 1
    74    29    88 1
    75    30    31 1
    76    30    89 1
    77    30    90 1
    78    31    32 1
    79    31    33 1
    80    31    91 1
    81    32    92 1
    82    32    93 1
    83    32    94 1
    84    33    34 1
    85    33    95 1
    86    33    96 1
    87    34    35 1
    88    34    97 1
    89    34    98 1
    90    35    36 2
    91    35    99 1
    92    36    37 1
    93    36    38 1
    94    37   100 1
    95    37   101 1
    96    37   102 1
    97    38    39 1
    98    38   103 1
    99    38   104 1
   100    39    40 1
   101    39   105 1
   102    39   106 1
   103    40    41 2
   104    40   107 1
   105    41    42 1
   106    41    43 1
   107    42   108 1
   108    42   109 1
   109    42   110 1
   110    43   111 1
   111    43   112 1
   112    43   113 1
@<TRIPOS>SUBSTRUCTURE
     1 SPN         1 TEMP              0 ****  ****    0 ROOT
