@<TRIPOS>MOLECULE
SPN
  113   112     1     0     0
SMALL
bcc


@<TRIPOS>ATOM
      1 CMA         0.2220   -0.9880   -2.2070 c3        1 SPN      0.118700
      2 O1          1.5980   -0.9090   -1.8790 os        1 SPN     -0.426600
      3 CM1         2.3120    0.1580   -3.9530 c3        1 SPN     -0.117100
      4 CM2         1.6740    1.5300   -1.9510 c3        1 SPN     -0.117100
      5 C1          2.2880    0.2220   -2.4310 c3        1 SPN      0.051800
      6 C2          3.7330    0.1280   -1.9130 c         1 SPN      0.586100
      7 O2          4.5340    1.0250   -2.1900 o         1 SPN     -0.534100
      8 C3          4.0710   -1.0790   -1.0940 c3        1 SPN     -0.134200
      9 C4          5.4840   -1.1400   -0.6640 c2        1 SPN     -0.174200
     10 C5          6.0040   -2.1840    0.0020 c2        1 SPN     -0.120400
     11 CM3         5.1980   -3.3780    0.3530 c3        1 SPN     -0.061900
     12 C6          7.4390   -2.2070    0.4060 c3        1 SPN     -0.039200
     13 C7          7.6060   -1.9630    1.8950 c3        1 SPN     -0.043200
     14 C8          9.0260   -2.0270    2.3110 c2        1 SPN     -0.173200
     15 C9          9.4510   -1.6950    3.5410 c2        1 SPN     -0.124400
     16 CM4         8.5220   -1.2220    4.5950 c3        1 SPN     -0.058900
     17 C10        10.8900   -1.7940    3.9180 c3        1 SPN     -0.038200
     18 C11        11.5070   -0.4230    4.1320 c3        1 SPN     -0.044200
     19 C12        12.9210   -0.5120    4.5640 c2        1 SPN     -0.174200
     20 C13        13.7330    0.5530    4.6610 c2        1 SPN     -0.122400
     21 CM5        13.2780    1.9250    4.3280 c3        1 SPN     -0.058900
     22 C14        15.1450    0.4140    5.1180 c3        1 SPN     -0.040200
     23 C15        16.1300    0.7000    4.0000 c3        1 SPN     -0.076400
     24 C16        17.5560    0.6210    4.5000 c3        1 SPN     -0.076400
     25 C17        18.5420    0.8870    3.3780 c3        1 SPN     -0.040200
     26 C18        19.9500    0.8790    3.8650 c2        1 SPN     -0.123400
     27 CM6        20.3460    1.9920    4.7610 c3        1 SPN     -0.057900
     28 C19        20.8110   -0.0860    3.5010 c2        1 SPN     -0.173200
     29 C20        22.2250   -0.1290    3.9430 c3        1 SPN     -0.047200
     30 C21        22.8970   -1.4340    3.5670 c3        1 SPN     -0.074400
     31 C22        24.3330   -1.5100    4.0710 c3        1 SPN     -0.065700
     32 CM7        25.2390   -0.6110    3.2560 c3        1 SPN     -0.090100
     33 C23        24.8170   -2.9540    4.0290 c3        1 SPN     -0.074400
     34 C24        26.0730   -3.1630    4.8510 c3        1 SPN     -0.047200
     35 C25        26.5000   -4.5820    4.8590 c2        1 SPN     -0.172200
     36 C26        27.4700   -5.0590    5.6560 c2        1 SPN     -0.125400
     37 CM8        28.1960   -4.1980    6.6200 c3        1 SPN     -0.058900
     38 C27        27.8550   -6.4990    5.6330 c3        1 SPN     -0.039200
     39 C28        29.1690   -6.7160    4.9030 c3        1 SPN     -0.042200
     40 C29        29.5800   -8.1390    4.9120 c2        1 SPN     -0.177200
     41 C30        30.7460   -8.5740    4.4080 c2        1 SPN     -0.124400
     42 CM9        31.1220  -10.0080    4.4310 c3        1 SPN     -0.057400
     43 CMB        31.7350   -7.6530    3.7990 c3        1 SPN     -0.057400
     44 HMA1       -0.3380   -0.1150   -1.7900 h1        1 SPN      0.036367
     45 HMA2        0.0750   -1.0480   -3.3120 h1        1 SPN      0.036367
     46 HMA3       -0.1170   -1.9360   -1.7160 h1        1 SPN      0.036367
     47 HM11        3.0730    0.8770   -4.3430 hc        1 SPN      0.052700
     48 HM12        1.3140    0.4290   -4.3720 hc        1 SPN      0.052700
     49 HM13        2.5740   -0.8740   -4.2890 hc        1 SPN      0.052700
     50 HM21        1.4770    1.4820   -0.8540 hc        1 SPN      0.052700
     51 HM22        0.7120    1.7270   -2.4810 hc        1 SPN      0.052700
     52 HM23        2.3800    2.3700   -2.1620 hc        1 SPN      0.052700
     53 H31         3.8040   -1.9940   -1.6970 hc        1 SPN      0.086700
     54 H32         3.3880   -1.0860   -0.1970 hc        1 SPN      0.086700
     55 H4          6.1040   -0.2640   -0.9230 ha        1 SPN      0.146000
     56 HM31        4.2370   -3.0750    0.8420 hc        1 SPN      0.041700
     57 HM32        5.7510   -4.0540    1.0490 hc        1 SPN      0.041700
     58 HM33        4.9450   -3.9550   -0.5730 hc        1 SPN      0.041700
     59 H61         7.8780   -3.2070    0.1390 hc        1 SPN      0.047700
     60 H62         8.0150   -1.4280   -0.1620 hc        1 SPN      0.047700
     61 H71         7.1780   -0.9570    2.1590 hc        1 SPN      0.050200
     62 H72         7.0140   -2.7280    2.4700 hc        1 SPN      0.050200
     63 H8          9.7400   -2.3730    1.5460 ha        1 SPN      0.123000
     64 HM41        8.1440   -0.1990    4.3430 hc        1 SPN      0.041033
     65 HM42        9.0250   -1.1750    5.5920 hc        1 SPN      0.041033
     66 HM43        7.6390   -1.9050    4.6750 hc        1 SPN      0.041033
     67 H101       10.9800   -2.3960    4.8620 hc        1 SPN      0.045700
     68 H102       11.4670   -2.3370    3.1230 hc        1 SPN      0.045700
     69 H111       11.4380    0.1720    3.1800 hc        1 SPN      0.050700
     70 H112       10.9130    0.1370    4.9070 hc        1 SPN      0.050700
     71 H12        13.2880   -1.5200    4.8160 ha        1 SPN      0.122000
     72 HM51       12.2950    2.1410    4.8180 hc        1 SPN      0.041367
     73 HM52       13.1400    2.0260    3.2210 hc        1 SPN      0.041367
     74 HM53       14.0170    2.6920    4.6620 hc        1 SPN      0.041367
     75 H141       15.3260    1.1300    5.9660 hc        1 SPN      0.044200
     76 H142       15.3280   -0.6200    5.5150 hc        1 SPN      0.044200
     77 H151       15.9320    1.7210    3.5780 hc        1 SPN      0.042700
     78 H152       15.9790   -0.0380    3.1700 hc        1 SPN      0.042700
     79 H161       17.7130    1.3690    5.3220 hc        1 SPN      0.042200
     80 H162       17.7480   -0.3950    4.9350 hc        1 SPN      0.042200
     81 H171       18.4010    0.1160    2.5730 hc        1 SPN      0.044700
     82 H172       18.3210    1.8880    2.9170 hc        1 SPN      0.044700
     83 HM61       21.3170    2.4380    4.4280 hc        1 SPN      0.040367
     84 HM62       20.4800    1.6130    5.8060 hc        1 SPN      0.040367
     85 HM63       19.5730    2.7980    4.7760 hc        1 SPN      0.040367
     86 H19        20.4880   -0.9020    2.8340 ha        1 SPN      0.122000
     87 H201       22.7810    0.7330    3.4800 hc        1 SPN      0.047700
     88 H202       22.2770    0.0140    5.0570 hc        1 SPN      0.047700
     89 H211       22.8860   -1.5580    2.4530 hc        1 SPN      0.041700
     90 H212       22.3050   -2.2830    4.0020 hc        1 SPN      0.041700
     91 H22        24.3520   -1.1610    5.1430 hc        1 SPN      0.047700
     92 HM71       24.8870    0.4480    3.3040 hc        1 SPN      0.033700
     93 HM72       25.2520   -0.9310    2.1860 hc        1 SPN      0.033700
     94 HM73       26.2840   -0.6500    3.6480 hc        1 SPN      0.033700
     95 H231       24.0110   -3.6270    4.4240 hc        1 SPN      0.042200
     96 H232       25.0070   -3.2520    2.9640 hc        1 SPN      0.042200
     97 H241       26.9070   -2.5310    4.4390 hc        1 SPN      0.047700
     98 H242       25.8950   -2.8150    5.9050 hc        1 SPN      0.047700
     99 H25        25.9730   -5.2500    4.1580 ha        1 SPN      0.123000
    100 HM81       27.5280   -3.9410    7.4810 hc        1 SPN      0.041033
    101 HM82       29.1040   -4.7110    7.0210 hc        1 SPN      0.041033
    102 HM83       28.5140   -3.2420    6.1340 hc        1 SPN      0.041033
    103 H271       27.9490   -6.8710    6.6880 hc        1 SPN      0.046200
    104 H272       27.0530   -7.1080    5.1360 hc        1 SPN      0.046200
    105 H281       29.0700   -6.3620    3.8400 hc        1 SPN      0.050200
    106 H282       29.9720   -6.0880    5.3780 hc        1 SPN      0.050200
    107 H29        28.8660   -8.8480    5.3610 ha        1 SPN      0.122000
    108 HM91       30.3400  -10.6330    4.9280 hc        1 SPN      0.040367
    109 HM92       32.0850  -10.1430    4.9830 hc        1 SPN      0.040367
    110 HM93       31.2640  -10.3840    3.3870 hc        1 SPN      0.040367
    111 HMB1       32.1420   -6.9550    4.5740 hc        1 SPN      0.040367
    112 HMB2       32.5880   -8.2130    3.3450 hc        1 SPN      0.040367
    113 HMB3       31.2530   -7.0340    3.0000 hc        1 SPN      0.040367
@<TRIPOS>BOND
     1    1    2 1   
     2    1   44 1   
     3    1   45 1   
     4    1   46 1   
     5    2    5 1   
     6    3    5 1   
     7    3   47 1   
     8    3   48 1   
     9    3   49 1   
    10    4    5 1   
    11    4   50 1   
    12    4   51 1   
    13    4   52 1   
    14    5    6 1   
    15    6    7 2   
    16    6    8 1   
    17    8    9 1   
    18    8   53 1   
    19    8   54 1   
    20    9   10 2   
    21    9   55 1   
    22   10   11 1   
    23   10   12 1   
    24   11   56 1   
    25   11   57 1   
    26   11   58 1   
    27   12   13 1   
    28   12   59 1   
    29   12   60 1   
    30   13   14 1   
    31   13   61 1   
    32   13   62 1   
    33   14   15 2   
    34   14   63 1   
    35   15   16 1   
    36   15   17 1   
    37   16   64 1   
    38   16   65 1   
    39   16   66 1   
    40   17   18 1   
    41   17   67 1   
    42   17   68 1   
    43   18   19 1   
    44   18   69 1   
    45   18   70 1   
    46   19   20 2   
    47   19   71 1   
    48   20   21 1   
    49   20   22 1   
    50   21   72 1   
    51   21   73 1   
    52   21   74 1   
    53   22   23 1   
    54   22   75 1   
    55   22   76 1   
    56   23   24 1   
    57   23   77 1   
    58   23   78 1   
    59   24   25 1   
    60   24   79 1   
    61   24   80 1   
    62   25   26 1   
    63   25   81 1   
    64   25   82 1   
    65   26   27 1   
    66   26   28 2   
    67   27   83 1   
    68   27   84 1   
    69   27   85 1   
    70   28   29 1   
    71   28   86 1   
    72   29   30 1   
    73   29   87 1   
    74   29   88 1   
    75   30   31 1   
    76   30   89 1   
    77   30   90 1   
    78   31   32 1   
    79   31   33 1   
    80   31   91 1   
    81   32   92 1   
    82   32   93 1   
    83   32   94 1   
    84   33   34 1   
    85   33   95 1   
    86   33   96 1   
    87   34   35 1   
    88   34   97 1   
    89   34   98 1   
    90   35   36 2   
    91   35   99 1   
    92   36   37 1   
    93   36   38 1   
    94   37  100 1   
    95   37  101 1   
    96   37  102 1   
    97   38   39 1   
    98   38  103 1   
    99   38  104 1   
   100   39   40 1   
   101   39  105 1   
   102   39  106 1   
   103   40   41 2   
   104   40  107 1   
   105   41   42 1   
   106   41   43 1   
   107   42  108 1   
   108   42  109 1   
   109   42  110 1   
   110   43  111 1   
   111   43  112 1   
   112   43  113 1   
@<TRIPOS>SUBSTRUCTURE
     1 SPN         1 TEMP              0 ****  ****    0 ROOT
