@<TRIPOS>MOLECULE
molecule
  102   101     1     0     0
SMALL
bcc


@<TRIPOS>ATOM
      1 CM1          0.0000     0.0000     0.0000 c3         1 SPO       0.107700
      2 O1           1.4280     0.0000     0.0000 os         1 SPO      -0.404600
      3 C1           1.8430     0.0000     1.3660 c3         1 SPO       0.137800
      4 C2           1.3530     1.2800     2.0480 c3         1 SPO      -0.118600
      5 C3           1.2480    -1.2160     2.0790 c3         1 SPO      -0.118600
      6 C4           3.3690    -0.0630     1.4380 c3         1 SPO      -0.038200
      7 C5           3.9550     1.1350     0.7360 c2         1 SPO      -0.129200
      8 C6           4.7280     1.9920     1.4090 ce         1 SPO      -0.163000
      9 C7           5.2800     3.1190     0.7490 ce         1 SPO      -0.045200
     10 C8           4.9920     3.3500    -0.7110 c3         1 SPO      -0.065900
     11 C9           6.0670     3.9900     1.4340 cf         1 SPO      -0.165000
     12 C10          6.5090     5.1720     0.8170 cf         1 SPO      -0.090000
     13 C11          7.3840     5.9960     1.4650 ce         1 SPO      -0.160000
     14 C12          7.8250     7.1740     0.8490 ce         1 SPO      -0.022200
     15 C13          7.3330     7.5340    -0.5300 c3         1 SPO      -0.070900
     16 C14          8.7090     8.0040     1.5020 cf         1 SPO      -0.182000
     17 C15          9.1020     9.2110     0.9120 cf         1 SPO      -0.045000
     18 C16         10.0630     9.9910     1.5170 ce         1 SPO      -0.241000
     19 C17         10.4580    11.1980     0.9270 ce         1 SPO       0.074800
     20 C18          9.8310    11.6430    -0.3690 c3         1 SPO      -0.064900
     21 C19         11.4190    11.9790     1.5320 cf         1 SPO      -0.459000
     22 C20         12.0000    11.5660     2.7360 cf         1 SPO      -0.079000
     23 C21         12.9610    12.3460     3.3400 ce         1 SPO      -0.155000
     24 C22         13.5440    11.9320     4.5460 ce         1 SPO      -0.430000
     25 C23         14.4960    12.7050     5.1440 cf         1 SPO      -0.022200
     26 C24         14.9190    14.0040     4.5100 c3         1 SPO      -0.121900
     27 C25         15.0790    12.2900     6.3540 cf         1 SPO      -0.070000
     28 C26         16.1010    13.0040     6.8950 ce         1 SPO      -0.155000
     29 C27         16.7710    12.5210     8.0460 ce         1 SPO      -0.449000
     30 C28         17.8390    13.1710     8.5210 c2         1 SPO       0.022600
     31 C29         18.4220    14.3260     7.7490 c3         1 SPO      -0.125900
     32 C30         18.4580    12.7500     9.8290 c3         1 SPO      -0.006200
     33 C31         19.5350    11.6970     9.5670 c3         1 SPO      -0.076200
     34 C32         20.1550    11.2760    10.8740 c2         1 SPO      -0.506200
     35 C33         20.2420    10.0050    11.1780 c2         1 SPO       0.049600
     36 C34         19.8990     8.9590    10.1480 c3         1 SPO      -0.129900
     37 C35         20.6850     9.5880    12.5560 c3         1 SPO      -0.041200
     38 C36         19.4620     9.4600    13.4680 c3         1 SPO      -0.036200
     39 C37         19.9060     9.0430    14.8470 c2         1 SPO      -0.189200
     40 C38         19.7180     9.8450    15.8640 c2         1 SPO      -0.123400
     41 C39         19.9820     9.3580    17.2660 c3         1 SPO      -0.053900
     42 C40         19.2380    11.2550    15.6350 c3         1 SPO      -0.053900
     43 HM11        -0.3610     0.5310     0.8720 h1         1 SPO       0.033700
     44 HM12        -0.3610     0.4900    -0.8960 h1         1 SPO       0.033700
     45 HM13        -0.3610    -1.0210     0.0230 h1         1 SPO       0.033700
     46 H21A         0.3360     1.1390     2.3940 hc         1 SPO       0.044200
     47 H22A         1.3840     2.1000     1.3420 hc         1 SPO       0.044200
     48 H23          1.9930     1.5070     2.8930 hc         1 SPO       0.044200
     49 H31          0.2030    -1.0330     2.2960 hc         1 SPO       0.044200
     50 H32A         1.7840    -1.3900     3.0050 hc         1 SPO       0.044200
     51 H33          1.3370    -2.0880     1.4420 hc         1 SPO       0.044200
     52 H41          3.6830    -0.0630     2.4750 hc         1 SPO       0.059700
     53 H42          3.7160    -0.9690     0.9560 hc         1 SPO       0.059700
     54 H5           3.7490     1.3010    -0.3140 ha         1 SPO       0.145000
     55 H6           4.9350     1.8260     2.4600 ha         1 SPO       0.130000
     56 H81          5.8570     3.8010    -1.1820 hc         1 SPO       0.049367
     57 H82          4.7710     2.4040    -1.1900 hc         1 SPO       0.049367
     58 H83          4.1410     4.0130    -0.8100 hc         1 SPO       0.049367
     59 H9           6.2720     3.8210     2.4850 ha         1 SPO       0.134000
     60 H10          6.1560     5.4300    -0.1750 ha         1 SPO       0.134000
     61 H11          7.7380     5.7370     2.4560 ha         1 SPO       0.138000
     62 H131         8.0990     8.0950    -1.0520 hc         1 SPO       0.050700
     63 H132         7.1080     6.6290    -1.0810 hc         1 SPO       0.050700
     64 H133         6.4370     8.1380    -0.4470 hc         1 SPO       0.050700
     65 H14          9.0630     7.7450     2.4920 ha         1 SPO       0.141000
     66 H15          8.6520     9.5310    -0.0200 ha         1 SPO       0.135000
     67 H16         10.5140     9.6710     2.4480 ha         1 SPO       0.145000
     68 H181         8.7610    11.7430    -0.2370 hc         1 SPO       0.056033
     69 H182        10.0330    10.9090    -1.1390 hc         1 SPO       0.056033
     70 H183        10.2490    12.5990    -0.6630 hc         1 SPO       0.056033
     71 H19         10.9450    12.0670     2.5020 ha         1 SPO       0.280000
     72 H20         11.6950    10.6320     3.1920 ha         1 SPO       0.115000
     73 H21         13.2660    13.2790     2.8840 ha         1 SPO       0.122000
     74 H22         14.0160    11.8430     3.5750 ha         1 SPO       0.307000
     75 H241        15.7750    13.8310     3.8690 hc         1 SPO       0.049367
     76 H242        14.1020    14.4020     3.9210 hc         1 SPO       0.049367
     77 H243        15.1860    14.7140     5.2840 hc         1 SPO       0.049367
     78 H25         14.7780    11.3510     6.8040 ha         1 SPO       0.171000
     79 H26         16.4640    13.8930     6.3920 ha         1 SPO       0.095000
     80 H27         17.1210    12.2820     7.0490 ha         1 SPO       0.298000
     81 H291        19.2840    14.7150     8.2780 hc         1 SPO       0.050700
     82 H292        18.7240    13.9870     6.7660 hc         1 SPO       0.050700
     83 H293        17.6780    15.1070     7.6490 hc         1 SPO       0.050700
     84 H301        18.9040    13.6110    10.3110 hc         1 SPO       0.073700
     85 H302        17.6930    12.3310    10.4720 hc         1 SPO       0.073700
     86 H311        20.3000    12.1150     8.9230 hc         1 SPO       0.030200
     87 H312        19.0890    10.8360     9.0850 hc         1 SPO       0.030200
     88 H32         20.7460    11.3050     9.9670 ha         1 SPO       0.311000
     89 H341        20.1840     7.9810    10.5180 hc         1 SPO       0.051700
     90 H342        18.8320     8.9760     9.9580 hc         1 SPO       0.051700
     91 H343        20.4330     9.1670     9.2290 hc         1 SPO       0.051700
     92 H351        21.3590    10.3330    12.9600 hc         1 SPO       0.055700
     93 H352        21.1940     8.6330    12.4990 hc         1 SPO       0.055700
     94 H361        18.7880     8.7140    13.0650 hc         1 SPO       0.056200
     95 H362        18.9530    10.4140    13.5250 hc         1 SPO       0.056200
     96 H37         20.2520     8.0310    15.0160 ha         1 SPO       0.120000
     97 H391        19.1130     9.5480    17.8840 hc         1 SPO       0.042200
     98 H392        20.8370     9.8810    17.6750 hc         1 SPO       0.042200
     99 H393        20.1850     8.2940    17.2460 hc         1 SPO       0.042200
    100 H401        18.2460    11.2320    15.2010 hc         1 SPO       0.042200
    101 H402        19.9160    11.7610    14.9590 hc         1 SPO       0.042200
    102 H403        19.2080    11.7840    16.5800 hc         1 SPO       0.042200
@<TRIPOS>BOND
     1     1     2 1
     2     1    43 1
     3     1    44 1
     4     1    45 1
     5     2     3 1
     6     3     4 1
     7     3     5 1
     8     3     6 1
     9     4    46 1
    10     4    47 1
    11     4    48 1
    12     5    49 1
    13     5    50 1
    14     5    51 1
    15     6     7 1
    16     6    52 1
    17     6    53 1
    18     7     8 2
    19     7    54 1
    20     8     9 1
    21     8    55 1
    22     9    10 1
    23     9    11 2
    24    10    56 1
    25    10    57 1
    26    10    58 1
    27    11    12 1
    28    11    59 1
    29    12    13 2
    30    12    60 1
    31    13    14 1
    32    13    61 1
    33    14    15 1
    34    14    16 2
    35    15    62 1
    36    15    63 1
    37    15    64 1
    38    16    17 1
    39    16    65 1
    40    17    18 2
    41    17    66 1
    42    18    19 1
    43    18    67 1
    44    19    20 1
    45    19    21 2
    46    20    68 1
    47    20    69 1
    48    20    70 1
    49    21    22 1
    50    21    71 1
    51    22    23 2
    52    22    72 1
    53    23    24 1
    54    23    73 1
    55    24    25 2
    56    24    74 1
    57    25    26 1
    58    25    27 1
    59    26    75 1
    60    26    76 1
    61    26    77 1
    62    27    28 2
    63    27    78 1
    64    28    29 1
    65    28    79 1
    66    29    30 2
    67    29    80 1
    68    30    31 1
    69    30    32 1
    70    31    81 1
    71    31    82 1
    72    31    83 1
    73    32    33 1
    74    32    84 1
    75    32    85 1
    76    33    34 1
    77    33    86 1
    78    33    87 1
    79    34    35 2
    80    34    88 1
    81    35    36 1
    82    35    37 1
    83    36    89 1
    84    36    90 1
    85    36    91 1
    86    37    38 1
    87    37    92 1
    88    37    93 1
    89    38    39 1
    90    38    94 1
    91    38    95 1
    92    39    40 2
    93    39    96 1
    94    40    41 1
    95    40    42 1
    96    41    97 1
    97    41    98 1
    98    41    99 1
    99    42   100 1
   100    42   101 1
   101    42   102 1
@<TRIPOS>SUBSTRUCTURE
     1 SPO         1 TEMP              0 ****  ****    0 ROOT
