@<TRIPOS>MOLECULE
SPO
  102   102     1     0     0
SMALL
bcc


@<TRIPOS>ATOM
      1 CM1         0.4530    0.2430    1.6810 c3        1 SPO      0.117700
      2 O1          1.6390    0.8460    1.2020 os        1 SPO     -0.422600
      3 C1          2.4360    1.5100    2.1960 c3        1 SPO      0.152800
      4 C2          1.6170    2.5090    2.9990 c3        1 SPO     -0.118100
      5 C3          3.0830    0.4850    3.1220 c3        1 SPO     -0.118100
      6 C4          3.5350    2.2290    1.3950 c3        1 SPO     -0.043200
      7 C5          2.9960    3.2680    0.4880 c2        1 SPO     -0.141200
      8 C6          3.5310    4.4760    0.2930 ce        1 SPO     -0.150000
      9 C7          4.7090    5.0100    0.9800 ce        1 SPO     -0.013200
     10 C8          4.4690    5.5620    2.3390 c3        1 SPO     -0.055900
     11 C9          5.9000    5.0400    0.4080 cu        1 SPO     -0.185400
     12 C10         6.7530    4.7260   -0.7360 cx        1 SPO     -0.073200
     13 C11         7.3300    5.3820    0.5130 cx        1 SPO     -0.047300
     14 C12         7.8070    6.7750    0.4800 c2        1 SPO     -0.063400
     15 C13         7.0240    7.7630   -0.3020 c3        1 SPO     -0.064900
     16 C14         8.9370    7.1070    1.1410 ce        1 SPO     -0.150000
     17 C15         9.5150    8.4300    1.1640 ce        1 SPO     -0.120000
     18 C16        10.6170    8.7260    1.8800 cf        1 SPO     -0.127000
     19 C17        11.2360   10.0380    1.9280 cf        1 SPO     -0.070200
     20 C18        10.8500   11.0050    0.8650 c3        1 SPO     -0.061900
     21 C19        12.1280   10.4060    2.8740 ce        1 SPO     -0.131000
     22 C20        12.5770    9.6010    3.9840 ce        1 SPO     -0.125000
     23 C21        13.4520   10.0090    4.9180 cf        1 SPO     -0.125000
     24 C22        14.0930   11.3050    5.0170 cf        1 SPO     -0.137000
     25 C23        14.9410   11.8590    4.1300 ce        1 SPO     -0.072200
     26 C24        15.3300   11.2120    2.8520 c3        1 SPO     -0.063900
     27 C25        15.5360   13.1710    4.3470 ce        1 SPO     -0.129000
     28 C26        16.0290   13.6620    5.4960 cf        1 SPO     -0.121000
     29 C27        16.1120   12.9510    6.7510 cf        1 SPO     -0.150000
     30 C28        16.3210   13.5390    7.9450 c2        1 SPO     -0.101400
     31 C29        16.4620   15.0060    8.1050 c3        1 SPO     -0.063900
     32 C30        16.4060   12.7280    9.1930 c3        1 SPO     -0.043200
     33 C31        17.8170   12.7100    9.7530 c3        1 SPO     -0.043200
     34 C32        17.9000   11.9530   11.0230 c2        1 SPO     -0.175200
     35 C33        19.0590   11.6560   11.6330 c2        1 SPO     -0.122400
     36 C34        20.3710   12.0600   11.0720 c3        1 SPO     -0.059900
     37 C35        19.0890   10.9060   12.9210 c3        1 SPO     -0.039200
     38 C36        19.6790    9.5180   12.7470 c3        1 SPO     -0.043200
     39 C37        19.7620    8.7850   14.0310 c2        1 SPO     -0.178200
     40 C38        20.1270    7.4960   14.1240 c2        1 SPO     -0.123400
     41 C39        20.2040    6.7970   15.4290 c3        1 SPO     -0.057900
     42 C40        20.4740    6.6860   12.9320 c3        1 SPO     -0.057900
     43 HM11        0.0500   -0.3080    0.7930 h1        1 SPO      0.031367
     44 HM12        0.6640   -0.4690    2.5150 h1        1 SPO      0.031367
     45 HM13       -0.2780    1.0200    2.0170 h1        1 SPO      0.031367
     46 H21A        1.0260    3.1580    2.3100 hc        1 SPO      0.043700
     47 H22A        2.2990    3.1520    3.6060 hc        1 SPO      0.043700
     48 H23         0.9160    1.9810    3.6890 hc        1 SPO      0.043700
     49 H31         3.5680   -0.3180    2.5190 hc        1 SPO      0.043700
     50 H32A        2.3200    0.0200    3.7900 hc        1 SPO      0.043700
     51 H33         3.8540    0.9820    3.7570 hc        1 SPO      0.043700
     52 H41         4.0770    1.4620    0.7760 hc        1 SPO      0.060700
     53 H42         4.2680    2.6690    2.1230 hc        1 SPO      0.060700
     54 H5          2.0910    2.9620   -0.0670 ha        1 SPO      0.138000
     55 H6          3.0790    5.1740   -0.4330 ha        1 SPO      0.129000
     56 H81         3.8040    6.4590    2.2700 hc        1 SPO      0.045367
     57 H82         3.9600    4.7980    2.9780 hc        1 SPO      0.045367
     58 H83         5.4250    5.8650    2.8300 hc        1 SPO      0.045367
     59 H9          7.0160    3.6740   -0.9490 hc        1 SPO      0.077200
     60 H10         6.6580    5.3250   -1.6610 hc        1 SPO      0.077200
     61 H11         7.9470    4.7340    1.1750 hc        1 SPO      0.083700
     62 H131        6.0360    7.3440   -0.6170 hc        1 SPO      0.046700
     63 H132        6.8320    8.6830    0.3050 hc        1 SPO      0.046700
     64 H133        7.5890    8.0610   -1.2210 hc        1 SPO      0.046700
     65 H14         9.4830    6.3340    1.7130 ha        1 SPO      0.122000
     66 H15         9.0080    9.2020    0.5600 ha        1 SPO      0.125000
     67 H16        11.1060    7.9370    2.4780 ha        1 SPO      0.123000
     68 H181       10.9320   10.5280   -0.1430 hc        1 SPO      0.043033
     69 H182       11.5010   11.9130    0.8790 hc        1 SPO      0.043033
     70 H183        9.7900   11.3330    1.0140 hc        1 SPO      0.043033
     71 H19        12.5720   11.4200    2.8270 ha        1 SPO      0.131000
     72 H20        12.1460    8.5880    4.0720 ha        1 SPO      0.123000
     73 H21        13.7100    9.3250    5.7490 ha        1 SPO      0.125000
     74 H22        13.8510   11.8500    5.9510 ha        1 SPO      0.135000
     75 H241       16.4420   11.0950    2.8040 hc        1 SPO      0.046367
     76 H242       15.0070   11.8440    1.9870 hc        1 SPO      0.046367
     77 H243       14.8580   10.2040    2.7470 hc        1 SPO      0.046367
     78 H25        15.5790   13.7970    3.4370 ha        1 SPO      0.124000
     79 H26        16.4370   14.6900    5.5030 ha        1 SPO      0.121000
     80 H27        16.0060   11.8520    6.6900 ha        1 SPO      0.131000
     81 H291       17.3950   15.3640    7.6000 hc        1 SPO      0.043700
     82 H292       15.5920   15.5380    7.6450 hc        1 SPO      0.043700
     83 H293       16.5170   15.2940    9.1840 hc        1 SPO      0.043700
     84 H301       15.7050   13.1600    9.9580 hc        1 SPO      0.048200
     85 H302       16.0740   11.6730    8.9990 hc        1 SPO      0.048200
     86 H311       18.1660   13.7670    9.9250 hc        1 SPO      0.051200
     87 H312       18.5150   12.2590    8.9950 hc        1 SPO      0.051200
     88 H32        16.9390   11.6360   11.4620 ha        1 SPO      0.123000
     89 H341       21.1960   11.8980   11.8070 hc        1 SPO      0.041367
     90 H342       20.5960   11.4640   10.1520 hc        1 SPO      0.041367
     91 H343       20.3580   13.1420   10.7860 hc        1 SPO      0.041367
     92 H351       18.0530   10.8160   13.3450 hc        1 SPO      0.046200
     93 H352       19.7030   11.4820   13.6650 hc        1 SPO      0.046200
     94 H361       19.0530    8.9330   12.0170 hc        1 SPO      0.050200
     95 H362       20.7060    9.6020   12.2960 hc        1 SPO      0.050200
     96 H37        19.5070    9.3600   14.9360 ha        1 SPO      0.122000
     97 H391       19.8970    7.4620   16.2730 hc        1 SPO      0.040533
     98 H392       19.5340    5.9010   15.4240 hc        1 SPO      0.040533
     99 H393       21.2500    6.4490   15.6160 hc        1 SPO      0.040533
    100 H401       19.5650    6.5270   12.2960 hc        1 SPO      0.040533
    101 H402       20.8800    5.6860   13.2230 hc        1 SPO      0.040533
    102 H403       21.2400    7.2120   12.3090 hc        1 SPO      0.040533
@<TRIPOS>BOND
     1    1    2 1   
     2    1   43 1   
     3    1   44 1   
     4    1   45 1   
     5    2    3 1   
     6    3    4 1   
     7    3    5 1   
     8    3    6 1   
     9    4   46 1   
    10    4   47 1   
    11    4   48 1   
    12    5   49 1   
    13    5   50 1   
    14    5   51 1   
    15    6    7 1   
    16    6   52 1   
    17    6   53 1   
    18    7    8 2   
    19    7   54 1   
    20    8    9 1   
    21    8   55 1   
    22    9   10 1   
    23    9   11 2   
    24   10   56 1   
    25   10   57 1   
    26   10   58 1   
    27   11   12 1   
    28   11   13 1   
    29   12   13 1   
    30   12   59 1   
    31   12   60 1   
    32   13   14 1   
    33   13   61 1   
    34   14   15 1   
    35   14   16 2   
    36   15   62 1   
    37   15   63 1   
    38   15   64 1   
    39   16   17 1   
    40   16   65 1   
    41   17   18 2   
    42   17   66 1   
    43   18   19 1   
    44   18   67 1   
    45   19   20 1   
    46   19   21 2   
    47   20   68 1   
    48   20   69 1   
    49   20   70 1   
    50   21   22 1   
    51   21   71 1   
    52   22   23 2   
    53   22   72 1   
    54   23   24 1   
    55   23   73 1   
    56   24   25 2   
    57   24   74 1   
    58   25   26 1   
    59   25   27 1   
    60   26   75 1   
    61   26   76 1   
    62   26   77 1   
    63   27   28 2   
    64   27   78 1   
    65   28   29 1   
    66   28   79 1   
    67   29   30 2   
    68   29   80 1   
    69   30   31 1   
    70   30   32 1   
    71   31   81 1   
    72   31   82 1   
    73   31   83 1   
    74   32   33 1   
    75   32   84 1   
    76   32   85 1   
    77   33   34 1   
    78   33   86 1   
    79   33   87 1   
    80   34   35 2   
    81   34   88 1   
    82   35   36 1   
    83   35   37 1   
    84   36   89 1   
    85   36   90 1   
    86   36   91 1   
    87   37   38 1   
    88   37   92 1   
    89   37   93 1   
    90   38   39 1   
    91   38   94 1   
    92   38   95 1   
    93   39   40 2   
    94   39   96 1   
    95   40   41 1   
    96   40   42 1   
    97   41   97 1   
    98   41   98 1   
    99   41   99 1   
   100   42  100 1   
   101   42  101 1   
   102   42  102 1   
@<TRIPOS>SUBSTRUCTURE
     1 SPO         1 TEMP              0 ****  ****    0 ROOT
