@<TRIPOS>MOLECULE
SPP
   60    63     1     0     0
SMALL
bcc


@<TRIPOS>ATOM
      1 C2           0.0000     0.0000     0.0000 ca         1 SPP       0.379200
      2 C3           1.3980     0.0000     0.0000 ca         1 SPP      -0.011700
      3 C4           2.0710     0.0000     1.2150 ca         1 SPP      -0.178000
      4 C5           1.3220     0.0020     2.3850 ca         1 SPP      -0.158300
      5 C6          -0.0550     0.0020     2.3070 ca         1 SPP       0.337200
      6 C8          -1.4590    -1.2340    -1.3820 c3         1 SPP       0.134300
      7 C9          -2.0550    -1.2700    -2.7930 c3         1 SPP       0.027500
      8 C11         -2.1550     1.2510    -2.7260 c3         1 SPP       0.027500
      9 C12         -1.5550     1.1880    -1.3160 c3         1 SPP       0.134300
     10 C           -4.0880    -0.0690    -3.4570 c          1 SPP       0.641300
     11 C14         -4.8370     1.1810    -3.6530 cc         1 SPP      -0.320300
     12 C15         -6.1890     1.3040    -3.6140 cd         1 SPP      -0.069200
     13 C16         -7.7160     3.3680    -3.9240 ca         1 SPP      -0.061000
     14 C17         -7.7010     4.7250    -4.1730 ca         1 SPP       0.014600
     15 C18         -6.4890     5.3950    -4.3510 ca         1 SPP      -0.061000
     16 C19         -5.2960     4.7140    -4.2800 ca         1 SPP      -0.100000
     17 C20         -5.2880     3.3450    -4.0290 ca         1 SPP      -0.216200
     18 C21         -6.5070     2.6630    -3.8480 ca         1 SPP      -0.114800
     19 CA           3.5690    -0.1220    -1.1960 c3         1 SPP       0.127500
     20 CB           4.0420    -0.7110    -2.5270 c3         1 SPP      -0.013600
     21 CC           4.1930     1.2610    -1.0000 c3         1 SPP      -0.013600
     22 CE          -9.8120     4.4220    -6.6330 c3         1 SPP       0.007700
     23 N            2.1090    -0.0020    -1.2060 nu         1 SPP      -0.404600
     24 N1          -0.6710     0.0020     1.1390 nb         1 SPP      -0.556000
     25 N7          -0.6910     0.0050    -1.2100 nh         1 SPP      -0.508300
     26 N10         -2.8180    -0.0310    -3.0100 n          1 SPP      -0.155800
     27 N13         -4.2770     2.4190    -3.8990 na         1 SPP       0.326600
     28 ND          -8.9050     5.4340    -4.2480 nu         1 SPP      -0.420500
     29 O           -4.6160    -1.1380    -3.7000 o          1 SPP      -0.634100
     30 OS1         -8.3720     6.6420    -6.2930 o          1 SPP      -0.583800
     31 OS2        -10.6820     6.6270    -5.4080 o          1 SPP      -0.583800
     32 S           -9.4710     5.9500    -5.7170 s6         1 SPP       0.947900
     33 H4           3.1530     0.0000     1.2490 ha         1 SPP       0.126000
     34 H5           1.8160     0.0020     3.3490 ha         1 SPP       0.109000
     35 H6          -0.6400     0.0030     3.2190 h4         1 SPP      -0.016900
     36 H81         -0.8040    -2.0860    -1.2460 h1         1 SPP       0.028700
     37 H82         -2.2590    -1.2670    -0.6520 h1         1 SPP       0.028700
     38 H91         -2.7160    -2.1240    -2.8860 h1         1 SPP       0.036450
     39 H92         -1.2580    -1.3390    -3.5230 h1         1 SPP       0.036450
     40 H111        -1.3670     1.4200    -3.4490 h1         1 SPP       0.036450
     41 H112        -2.8810     2.0540    -2.7750 h1         1 SPP       0.036450
     42 H121        -2.3540     1.1170    -0.5880 h1         1 SPP       0.028700
     43 H122        -0.9690     2.0800    -1.1340 h1         1 SPP       0.028700
     44 H15         -6.8930     0.5200    -3.3610 ha         1 SPP       0.140000
     45 H16         -8.6570     2.8510    -3.7860 ha         1 SPP       0.105000
     46 H18         -6.4880     6.4600    -4.5470 ha         1 SPP       0.132000
     47 H19         -4.3610     5.2440    -4.4200 ha         1 SPP       0.103000
     48 HA           3.8600    -0.7810    -0.3860 h1         1 SPP       0.036700
     49 HB1          3.7630    -0.0460    -3.3350 hc         1 SPP       0.011033
     50 HB2          3.5800    -1.6790    -2.6790 hc         1 SPP       0.011033
     51 HB3          5.1200    -0.8250    -2.5080 hc         1 SPP       0.011033
     52 HC1          3.8410     1.6870    -0.0680 hc         1 SPP       0.011033
     53 HC2          3.9080     1.9060    -1.8230 hc         1 SPP       0.011033
     54 HC3          5.2720     1.1690    -0.9700 hc         1 SPP       0.011033
     55 HE1         -8.8800     3.9950    -6.9830 h1         1 SPP       0.063700
     56 HE2        -10.3120     3.7150    -5.9820 h1         1 SPP       0.063700
     57 HE3        -10.4480     4.6450    -7.4810 h1         1 SPP       0.063700
     58 HN           1.6210     0.1040    -2.0740 hn         1 SPP       0.309800
     59 HN3         -3.2980     2.6110    -3.9810 hn         1 SPP       0.146700
     60 HND         -9.4740     5.5390    -3.4310 hn         1 SPP       0.347800
@<TRIPOS>BOND
     1     1     2 ar  
     2     1    24 ar  
     3     1    25 1   
     4     2     3 ar  
     5     2    23 1   
     6     3     4 ar  
     7     3    33 1   
     8     4     5 ar  
     9     4    34 1   
    10     5    24 ar  
    11     5    35 1   
    12     6     7 1   
    13     6    25 1   
    14     6    36 1   
    15     6    37 1   
    16     7    26 1   
    17     7    38 1   
    18     7    39 1   
    19     8     9 1   
    20     8    26 1   
    21     8    40 1   
    22     8    41 1   
    23     9    25 1   
    24     9    42 1   
    25     9    43 1   
    26    10    11 1   
    27    10    26 1   
    28    10    29 2   
    29    11    12 2   
    30    11    27 1   
    31    12    18 1   
    32    12    44 1   
    33    13    14 ar  
    34    13    18 ar  
    35    13    45 1   
    36    14    15 ar  
    37    14    28 1   
    38    15    16 ar  
    39    15    46 1   
    40    16    17 ar  
    41    16    47 1   
    42    17    18 ar  
    43    17    27 1   
    44    19    20 1   
    45    19    21 1   
    46    19    23 1   
    47    19    48 1   
    48    20    49 1   
    49    20    50 1   
    50    20    51 1   
    51    21    52 1   
    52    21    53 1   
    53    21    54 1   
    54    22    32 1   
    55    22    55 1   
    56    22    56 1   
    57    22    57 1   
    58    23    58 1   
    59    27    59 1   
    60    28    32 1   
    61    28    60 1   
    62    30    32 2   
    63    31    32 2   
@<TRIPOS>SUBSTRUCTURE
     1 SPP         1 TEMP              0 ****  ****    0 ROOT
