@<TRIPOS>MOLECULE
SPQ
   36    36     1     0     0
SMALL
bcc


@<TRIPOS>ATOM
      1 O6P         0.0960   -1.8950   -0.4380 o         1 SPQ     -0.958167
      2 P2          0.4390   -0.6490    0.3440 p5        1 SPQ      1.402900
      3 O4P         0.2140   -0.8030    1.8300 o         1 SPQ     -0.958167
      4 O5P        -0.2380    0.5920   -0.1850 o         1 SPQ     -0.958167
      5 O10         2.1870   -0.4240    0.1870 os        1 SPQ     -0.602200
      6 C9          3.2440   -0.9430   -0.4980 c3        1 SPQ      0.394600
      7 C8          3.3800   -0.4610   -1.9880 c         1 SPQ      0.890600
      8 O2'         3.6080   -1.3430   -2.8910 o         1 SPQ     -0.895300
      9 O9          3.2560    0.7510   -2.3230 o         1 SPQ     -0.895300
     10 C10         3.2600   -2.5090   -0.5610 c3        1 SPQ      0.085900
     11 F           3.2500   -3.1500    0.6660 f         1 SPQ     -0.291300
     12 O3          4.3600   -0.4780    0.3350 os        1 SPQ     -0.452600
     13 C5          5.7010   -0.8110   -0.0450 c3        1 SPQ      0.161100
     14 C4          6.6050    0.4320    0.2360 c3        1 SPQ      0.135100
     15 O2          6.9230    0.9670   -1.0480 oh        1 SPQ     -0.633800
     16 C6          6.1740   -2.0420    0.7510 c3        1 SPQ     -0.043200
     17 C1          7.6520   -2.2360    0.7540 ce        1 SPQ     -0.184400
     18 C7          8.1980   -3.6420    0.7040 c         1 SPQ      0.917800
     19 O5          8.8850   -4.0510   -0.2920 o         1 SPQ     -0.915300
     20 O4          8.0050   -4.4450    1.6790 o         1 SPQ     -0.915300
     21 C2          8.4570   -1.1690    0.8680 c2        1 SPQ     -0.172200
     22 C3          7.9200    0.2220    1.0700 c3        1 SPQ      0.217300
     23 O1          8.8530    1.1950    0.7200 os        1 SPQ     -0.606200
     24 P1          9.7930    2.0480    1.8750 p5        1 SPQ      1.342900
     25 O3P         9.8040    3.4580    1.3220 o         1 SPQ     -0.957833
     26 O2P         9.1070    1.9100    3.2120 o         1 SPQ     -0.957833
     27 O1P        11.1680    1.4140    1.8220 o         1 SPQ     -0.957833
     28 H101        2.3520   -2.8320   -1.1400 h1        1 SPQ      0.039200
     29 H102        4.1840   -2.8290   -1.1170 h1        1 SPQ      0.039200
     30 H5          5.7420   -1.0340   -1.1470 h1        1 SPQ      0.060700
     31 H4          5.9820    1.1980    0.7790 h1        1 SPQ      0.033700
     32 HO2         7.7180    1.5060   -0.9370 ho        1 SPQ      0.405000
     33 H61         5.6710   -2.9550    0.3400 hc        1 SPQ      0.036700
     34 H62         5.8190   -1.9280    1.8120 hc        1 SPQ      0.036700
     35 H2          9.5510   -1.2620    0.8470 ha        1 SPQ      0.110000
     36 H3          7.6660    0.3460    2.1660 h1        1 SPQ      0.045700
@<TRIPOS>BOND
     1    1    2 1   
     2    2    3 1   
     3    2    4 1   
     4    2    5 1   
     5    5    6 1   
     6    6    7 1   
     7    6   10 1   
     8    6   12 1   
     9    7    8 1   
    10    7    9 1   
    11   10   11 1   
    12   10   28 1   
    13   10   29 1   
    14   12   13 1   
    15   13   14 1   
    16   13   16 1   
    17   13   30 1   
    18   14   15 1   
    19   14   22 1   
    20   14   31 1   
    21   15   32 1   
    22   16   17 1   
    23   16   33 1   
    24   16   34 1   
    25   17   18 1   
    26   17   21 2   
    27   18   19 1   
    28   18   20 1   
    29   21   22 1   
    30   21   35 1   
    31   22   23 1   
    32   22   36 1   
    33   23   24 1   
    34   24   25 1   
    35   24   26 1   
    36   24   27 1   
@<TRIPOS>SUBSTRUCTURE
     1 SPQ         1 TEMP              0 ****  ****    0 ROOT
