@<TRIPOS>MOLECULE
molecule
   36    36     1     0     0
SMALL
bcc


@<TRIPOS>ATOM
      1 O6P          0.0000     0.0000     0.0000 o          1 SPQ      -0.930500
      2 P2           1.6100     0.0000     0.0000 p5         1 SPQ       1.199900
      3 O4P          2.1460     0.0000     1.5180 o          1 SPQ      -0.930500
      4 O5P          2.1030     1.2080    -0.6980 o          1 SPQ      -0.930500
      5 O10          2.1460    -1.3150    -0.7580 os         1 SPQ      -0.553200
      6 C9           3.5720    -1.2290    -0.7740 c3         1 SPQ       0.237600
      7 C8           3.9960    -0.0680    -1.6350 c          1 SPQ       0.881600
      8 O2'          3.7240    -0.0720    -2.9490 o          1 SPQ      -0.832300
      9 O9           4.5800     0.8680    -1.1420 o          1 SPQ      -0.832300
     10 C10          4.1540    -2.5240    -1.3430 c3         1 SPQ       0.120900
     11 F            3.7440    -3.6050    -0.5560 f          1 SPQ      -0.307300
     12 O3           4.0530    -1.0350     0.5570 os         1 SPQ      -0.331600
     13 C5           5.4800    -1.0880     0.4920 c3         1 SPQ       0.130100
     14 C4           6.0760    -0.0250     1.4220 c3         1 SPQ       0.168100
     15 O2           5.4940     1.2480     1.1320 oh         1 SPQ      -0.462800
     16 C6           5.9690    -2.4630     0.9490 c3         1 SPQ      -0.053200
     17 C1           7.4590    -2.4480     1.1280 ce         1 SPQ      -0.216400
     18 C7           8.1630    -3.7370     1.1870 c          1 SPQ       0.898800
     19 O5           7.4700    -4.8880     1.0810 o          1 SPQ      -0.925800
     20 O4           9.3690    -3.7650     1.3310 o          1 SPQ      -0.925800
     21 C2           8.1710    -1.3470     1.2380 c2         1 SPQ      -0.129200
     22 C3           7.5870     0.0350     1.1910 c3         1 SPQ       0.179300
     23 O1           7.8390     0.6130    -0.0900 os         1 SPQ      -0.492200
     24 P1           8.7070     1.9450     0.1620 p5         1 SPQ       1.228900
     25 O3P          9.0290     2.6520    -1.2490 o          1 SPQ      -0.954500
     26 O2P          7.8730     2.9610     1.0910 o          1 SPQ      -0.954500
     27 O1P          9.9750     1.5870     0.8340 o          1 SPQ      -0.954500
     28 H101         3.8020    -2.6630    -2.3580 h1         1 SPQ       0.029700
     29 H102         5.2360    -2.4660    -1.3410 h1         1 SPQ       0.029700
     30 H5           5.8090    -0.9060    -0.5230 h1         1 SPQ       0.092700
     31 H4           5.8790    -0.2940     2.4530 h1         1 SPQ      -0.031300
     32 HO2          5.2540     1.6740     1.9370 ho         1 SPQ       0.348000
     33 H61          5.4980    -2.7150     1.8920 hc         1 SPQ       0.032200
     34 H62          5.7060    -3.2030     0.2020 hc         1 SPQ       0.032200
     35 H2           9.2420    -1.4430     1.3690 ha         1 SPQ       0.108000
     36 H3           8.0440     0.6440     1.9620 h1         1 SPQ       0.033700
@<TRIPOS>BOND
     1     1     2 1
     2     2     3 1
     3     2     4 1
     4     2     5 1
     5     5     6 1
     6     6     7 1
     7     6    10 1
     8     6    12 1
     9     7     8 1
    10     7     9 1
    11    10    11 1
    12    10    28 1
    13    10    29 1
    14    12    13 1
    15    13    14 1
    16    13    16 1
    17    13    30 1
    18    14    15 1
    19    14    22 1
    20    14    31 1
    21    15    32 1
    22    16    17 1
    23    16    33 1
    24    16    34 1
    25    17    18 1
    26    17    21 2
    27    18    19 1
    28    18    20 1
    29    21    22 1
    30    21    35 1
    31    22    23 1
    32    22    36 1
    33    23    24 1
    34    24    25 1
    35    24    26 1
    36    24    27 1
@<TRIPOS>SUBSTRUCTURE
     1 SPQ         1 TEMP              0 ****  ****    0 ROOT
