@<TRIPOS>MOLECULE
SPS
   43    43     1     0     0
SMALL
bcc


@<TRIPOS>ATOM
      1 C1         -1.3850    0.9520    0.7880 c         1 SPS      0.761700
      2 O1         -2.1120    1.3430   -0.1540 o         1 SPS     -0.711500
      3 N2         -0.5380    1.8860    1.3850 n         1 SPS     -0.564500
      4 C3          0.2950    1.5660    2.4680 c         1 SPS      0.804500
      5 O3          1.0370    2.4040    3.0070 o         1 SPS     -0.574500
      6 N4          0.2680    0.2290    2.9460 n         1 SPS     -0.448100
      7 C5         -0.5250   -0.7350    2.3740 cc        1 SPS      0.195400
      8 C7         -0.4770   -2.1210    2.9340 c3        1 SPS     -0.102900
      9 C6         -1.3570   -0.4240    1.3020 cd        1 SPS     -0.327200
     10 C8         -2.1460   -1.4500    0.6660 cf        1 SPS      0.042000
     11 C9         -3.3130   -1.3410    0.0140 ce        1 SPS     -0.286200
     12 C10        -4.1280   -0.1310   -0.1060 c         1 SPS      0.616300
     13 O10        -4.7200    0.5000    0.7580 o         1 SPS     -0.453100
     14 N11        -4.3150    0.3320   -1.5430 n4        1 SPS     -0.671800
     15 C12        -5.6970    0.8420   -1.8530 c3        1 SPS      0.172500
     16 C13        -5.6700    2.3620   -2.1280 c3        1 SPS      0.110400
     17 O13        -4.7360    2.5770   -3.1710 oh        1 SPS     -0.622800
     18 C14        -6.3320    0.1180   -3.0320 c3        1 SPS     -0.146100
     19 S15        -6.5890   -1.6290   -2.9720 s4        1 SPS      0.325600
     20 O15        -5.4110   -2.1150   -2.1810 o         1 SPS     -0.559200
     21 C16        -7.9640   -1.8120   -1.9240 c3        1 SPS     -0.084000
     22 S17        -8.7700   -3.1450   -2.7020 ss        1 SPS     -0.178200
     23 C18        -8.5570   -4.4960   -1.6090 c3        1 SPS     -0.064000
     24 HN2        -0.5190    2.8290    1.0530 hn        1 SPS      0.370500
     25 HN4         0.8570    0.0170    3.7270 hn        1 SPS      0.372500
     26 H71        -1.5180   -2.4800    3.1350 hc        1 SPS      0.085700
     27 H72         0.0050   -2.8030    2.1870 hc        1 SPS      0.085700
     28 H73         0.1030   -2.1860    3.8890 hc        1 SPS      0.085700
     29 H81        -1.7030   -2.4690    0.7200 ha        1 SPS      0.151000
     30 H91        -3.7790   -2.2230   -0.4780 ha        1 SPS      0.208000
     31 HN11       -3.6280    1.0840   -1.7170 hn        1 SPS      0.484800
     32 H121       -6.3320    0.6820   -0.9280 hx        1 SPS      0.109700
     33 H131       -6.6970    2.6910   -2.4370 h1        1 SPS      0.066200
     34 H132       -5.3580    2.9210   -1.2040 h1        1 SPS      0.066200
     35 HO13       -4.7410    3.5230   -3.3720 ho        1 SPS      0.442000
     36 H141       -7.3260    0.6070   -3.2150 h1        1 SPS      0.120700
     37 H142       -5.7200    0.3210   -3.9540 h1        1 SPS      0.120700
     38 H161       -7.7100   -2.0190   -0.8590 h2        1 SPS      0.129200
     39 H162       -8.6370   -0.9220   -1.9260 h2        1 SPS      0.129200
     40 H181       -7.4870   -4.7520   -1.4450 h1        1 SPS      0.083367
     41 H182       -9.0650   -5.3580   -2.1070 h1        1 SPS      0.083367
     42 H183       -9.0400   -4.3160   -0.6230 h1        1 SPS      0.083367
     43 H112       -4.0940   -0.4640   -2.1600 hn        1 SPS      0.484800
@<TRIPOS>BOND
     1    1    2 2   
     2    1    3 1   
     3    1    9 1   
     4    3    4 1   
     5    3   24 1   
     6    4    5 2   
     7    4    6 1   
     8    6    7 1   
     9    6   25 1   
    10    7    8 1   
    11    7    9 2   
    12    8   26 1   
    13    8   27 1   
    14    8   28 1   
    15    9   10 1   
    16   10   11 2   
    17   10   29 1   
    18   11   12 1   
    19   11   30 1   
    20   12   13 2   
    21   12   14 1   
    22   14   15 1   
    23   14   31 1   
    24   14   43 1   
    25   15   16 1   
    26   15   18 1   
    27   15   32 1   
    28   16   17 1   
    29   16   33 1   
    30   16   34 1   
    31   17   35 1   
    32   18   19 1   
    33   18   36 1   
    34   18   37 1   
    35   19   20 2   
    36   19   21 1   
    37   21   22 1   
    38   21   38 1   
    39   21   39 1   
    40   22   23 1   
    41   23   40 1   
    42   23   41 1   
    43   23   42 1   
@<TRIPOS>SUBSTRUCTURE
     1 SPS         1 TEMP              0 ****  ****    0 ROOT
