@<TRIPOS>MOLECULE
SPU
   80    79     1     0     0
SMALL
bcc


@<TRIPOS>ATOM
      1 C11         0.0180    0.9180   -1.0400 c3        1 SPU     -0.079400
      2 C14         1.4920    0.8400   -0.7050 c3        1 SPU     -0.079400
      3 C17         1.7080    0.4040    0.7280 c3        1 SPU     -0.078400
      4 C20         3.1820    0.3250    1.0630 c3        1 SPU     -0.079400
      5 C23         3.3980   -0.1110    2.4960 c3        1 SPU     -0.078400
      6 C26         4.8720   -0.1890    2.8310 c3        1 SPU     -0.079400
      7 C29         5.0880   -0.6260    4.2640 c3        1 SPU     -0.078400
      8 C32         6.5620   -0.7030    4.5990 c3        1 SPU     -0.079400
      9 C35         6.7780   -1.1400    6.0320 c3        1 SPU     -0.076400
     10 C38         8.2550   -1.2140    6.3640 c3        1 SPU     -0.046200
     11 C41         8.4800   -1.6220    7.7710 c2        1 SPU     -0.183200
     12 C43         9.3930   -2.5240    8.1430 c2        1 SPU     -0.174200
     13 C45         9.6150   -2.8910    9.5770 c3        1 SPU      0.175300
     14 O47         8.5030   -3.6130   10.1080 oh        1 SPU     -0.611800
     15 C49        10.8550   -3.8070    9.7710 c3        1 SPU      0.152500
     16 N51        12.0320   -3.2110    9.1720 n3        1 SPU     -0.911800
     17 C54        10.9580   -4.1130   11.2860 c3        1 SPU      0.152400
     18 O57        11.9040   -5.1170   11.5400 os        1 SPU     -0.585200
     19 P58        13.2710   -4.6540   12.3030 p5        1 SPU      1.440800
     20 O59        14.0190   -5.8880   12.6440 o         1 SPU     -0.821500
     21 O60        13.7390   -3.4040   11.7000 o         1 SPU     -0.821500
     22 O61        12.5290   -4.3440   13.7750 os        1 SPU     -0.575200
     23 C62        13.2290   -4.6710   14.9170 c3        1 SPU      0.199400
     24 C65        12.4520   -5.6980   15.7660 c3        1 SPU      0.089800
     25 N68        12.5240   -7.1450   15.3510 n4        1 SPU     -0.581800
     26 C70        13.9370   -7.5890   15.1750 c3        1 SPU      0.079100
     27 C74        11.8970   -7.9580   16.4360 c3        1 SPU      0.079100
     28 C78        11.7620   -7.3780   14.0880 c3        1 SPU      0.079100
     29 C21        -0.1970    1.3550   -2.4730 c3        1 SPU     -0.079400
     30 C22        -1.6710    1.4340   -2.8090 c3        1 SPU     -0.080400
     31 C231       -1.8910    1.8680   -4.2350 c3        1 SPU     -0.092100
     32 H11        -0.4580   -0.0840   -0.8760 hc        1 SPU      0.038700
     33 H11A       -0.4870    1.6410   -0.3460 hc        1 SPU      0.038700
     34 H14         1.9690    1.8420   -0.8690 hc        1 SPU      0.039700
     35 H14A        1.9980    0.1170   -1.3980 hc        1 SPU      0.039700
     36 H17         1.2320   -0.5990    0.8920 hc        1 SPU      0.038700
     37 H17A        1.2030    1.1260    1.4220 hc        1 SPU      0.038700
     38 H20         3.6590    1.3280    0.8990 hc        1 SPU      0.039700
     39 H20A        3.6880   -0.3980    0.3700 hc        1 SPU      0.039700
     40 H23         2.9220   -1.1140    2.6600 hc        1 SPU      0.038700
     41 H23A        2.8930    0.6120    3.1900 hc        1 SPU      0.038700
     42 H26         5.3780   -0.9120    2.1370 hc        1 SPU      0.039700
     43 H26A        5.3480    0.8140    2.6670 hc        1 SPU      0.039700
     44 H29         4.5820    0.0970    4.9570 hc        1 SPU      0.039200
     45 H29A        4.6120   -1.6290    4.4270 hc        1 SPU      0.039200
     46 H32         7.0680   -1.4250    3.9050 hc        1 SPU      0.040200
     47 H32A        7.0380    0.3000    4.4360 hc        1 SPU      0.040200
     48 H35         6.2710   -0.4190    6.7260 hc        1 SPU      0.039200
     49 H35A        6.3050   -2.1440    6.1940 hc        1 SPU      0.039200
     50 H38         8.7240   -0.2040    6.2040 hc        1 SPU      0.048700
     51 H38A        8.7630   -1.9260    5.6590 hc        1 SPU      0.048700
     52 H41         7.8450   -1.1110    8.5140 ha        1 SPU      0.112000
     53 H43        10.0390   -3.0310    7.4090 ha        1 SPU      0.149000
     54 H45         9.7420   -1.9540   10.1940 h1        1 SPU      0.041700
     55 HO47        7.7070   -3.2350    9.7160 ho        1 SPU      0.400000
     56 H49        10.6460   -4.7820    9.2420 h1        1 SPU      0.067700
     57 HN51       12.7450   -3.9050    9.0610 hn        1 SPU      0.366300
     58 HN5A       12.3950   -2.4760    9.7520 hn        1 SPU      0.366300
     59 H54        11.2280   -3.1810   11.8550 h1        1 SPU      0.043700
     60 H54A        9.9600   -4.4970   11.6370 h1        1 SPU      0.043700
     61 H62        13.2950   -3.7520   15.5750 h1        1 SPU      0.055200
     62 H62A       14.2650   -5.0410   14.6810 h1        1 SPU      0.055200
     63 H65        11.3640   -5.4060   15.7510 hx        1 SPU      0.080700
     64 H65A       12.8470   -5.6450   16.8190 hx        1 SPU      0.080700
     65 H70        14.3600   -7.1590   14.2140 hx        1 SPU      0.100256
     66 H70A       14.5420   -7.2410   16.0500 hx        1 SPU      0.100256
     67 H70B       13.9610   -8.7080   15.1110 hx        1 SPU      0.100256
     68 H74        10.8520   -7.5950   16.6180 hx        1 SPU      0.100256
     69 H74A       11.8690   -9.0350   16.1250 hx        1 SPU      0.100256
     70 H74B       12.5000   -7.8580   17.3760 hx        1 SPU      0.100256
     71 H78        10.7010   -7.0480   14.2280 hx        1 SPU      0.100256
     72 H78A       12.2400   -6.7770   13.2520 hx        1 SPU      0.100256
     73 H78B       11.8040   -8.4680   13.8320 hx        1 SPU      0.100256
     74 H44         0.2790    2.3570   -2.6370 hc        1 SPU      0.039700
     75 H451        0.3080    0.6320   -3.1670 hc        1 SPU      0.039700
     76 H46        -2.1460    0.4300   -2.6430 hc        1 SPU      0.037700
     77 H47        -2.1750    2.1560   -2.1140 hc        1 SPU      0.037700
     78 H48        -2.9830    1.9190   -4.4620 hc        1 SPU      0.032367
     79 H491       -1.4170    1.1470   -4.9450 hc        1 SPU      0.032367
     80 H50        -1.4460    2.8770   -4.4130 hc        1 SPU      0.032367
@<TRIPOS>BOND
     1    1    2 1   
     2    1   29 1   
     3    1   32 1   
     4    1   33 1   
     5    2    3 1   
     6    2   34 1   
     7    2   35 1   
     8    3    4 1   
     9    3   36 1   
    10    3   37 1   
    11    4    5 1   
    12    4   38 1   
    13    4   39 1   
    14    5    6 1   
    15    5   40 1   
    16    5   41 1   
    17    6    7 1   
    18    6   42 1   
    19    6   43 1   
    20    7    8 1   
    21    7   44 1   
    22    7   45 1   
    23    8    9 1   
    24    8   46 1   
    25    8   47 1   
    26    9   10 1   
    27    9   48 1   
    28    9   49 1   
    29   10   11 1   
    30   10   50 1   
    31   10   51 1   
    32   11   12 2   
    33   11   52 1   
    34   12   13 1   
    35   12   53 1   
    36   13   14 1   
    37   13   15 1   
    38   13   54 1   
    39   14   55 1   
    40   15   16 1   
    41   15   17 1   
    42   15   56 1   
    43   16   57 1   
    44   16   58 1   
    45   17   18 1   
    46   17   59 1   
    47   17   60 1   
    48   18   19 1   
    49   19   20 1   
    50   19   21 1   
    51   19   22 1   
    52   22   23 1   
    53   23   24 1   
    54   23   61 1   
    55   23   62 1   
    56   24   25 1   
    57   24   63 1   
    58   24   64 1   
    59   25   26 1   
    60   25   27 1   
    61   25   28 1   
    62   26   65 1   
    63   26   66 1   
    64   26   67 1   
    65   27   68 1   
    66   27   69 1   
    67   27   70 1   
    68   28   71 1   
    69   28   72 1   
    70   28   73 1   
    71   29   30 1   
    72   29   74 1   
    73   29   75 1   
    74   30   31 1   
    75   30   76 1   
    76   30   77 1   
    77   31   78 1   
    78   31   79 1   
    79   31   80 1   
@<TRIPOS>SUBSTRUCTURE
     1 SPU         1 TEMP              0 ****  ****    0 ROOT
