@<TRIPOS>MOLECULE
molecule
   12    11     1     0     0
SMALL
bcc


@<TRIPOS>ATOM
      1 C1           0.0000     0.0000     0.0000 c          1 SPV       0.808600
      2 O1           1.2120     0.0000     0.0000 o          1 SPV      -0.842800
      3 O2'         -0.6720     0.0000     1.1650 o          1 SPV      -0.842800
      4 C2          -0.7430     0.0000    -1.2920 c          1 SPV       0.505100
      5 C3           0.0100     0.0000    -2.5950 c3         1 SPV      -0.349600
      6 O2          -1.9520     0.0000    -1.2930 o          1 SPV      -0.561100
      7 S           -1.1670     0.0000    -3.9750 s6         1 SPV       1.287800
      8 O1S         -1.8470    -1.2430    -4.0830 o          1 SPV      -0.731200
      9 O2S         -0.2660     0.0000    -5.2010 o          1 SPV      -0.731200
     10 O3S         -1.8470     1.2430    -4.0830 o          1 SPV      -0.731200
     11 H31          0.6330     0.8850    -2.6520 h1         1 SPV       0.093700
     12 H32          0.6330    -0.8850    -2.6520 h1         1 SPV       0.093700
@<TRIPOS>BOND
     1     1     2 1
     2     1     3 1
     3     1     4 1
     4     4     5 1
     5     4     6 2
     6     5     7 1
     7     5    11 1
     8     5    12 1
     9     7     8 1
    10     7     9 1
    11     7    10 1
@<TRIPOS>SUBSTRUCTURE
     1 SPV         1 TEMP              0 ****  ****    0 ROOT
