@<TRIPOS>MOLECULE
SPV
   12    11     1     0     0
SMALL
bcc


@<TRIPOS>ATOM
      1 C1          0.0870   -0.1030   -0.0360 c         1 SPV      0.840600
      2 O1          0.7930   -1.1020    0.2910 o         1 SPV     -0.850300
      3 O2'         0.1290    1.0070    0.5710 o         1 SPV     -0.850300
      4 C2         -0.8550   -0.2400   -1.2390 c         1 SPV      0.535100
      5 C3         -0.2320    0.1280   -2.5460 c3        1 SPV     -0.394600
      6 O2         -2.0250   -0.6240   -1.1150 o         1 SPV     -0.597100
      7 S          -1.0700    0.0670   -4.1000 s6        1 SPV      1.418800
      8 O1S        -1.4480   -1.2760   -4.3600 o         1 SPV     -0.763533
      9 O2S        -0.0540    0.5050   -5.0130 o         1 SPV     -0.763533
     10 O3S        -2.1560    0.9800   -4.0660 o         1 SPV     -0.763533
     11 H31         0.1430    1.1770   -2.4120 h1        1 SPV      0.093700
     12 H32         0.6800   -0.5200   -2.6350 h1        1 SPV      0.093700
@<TRIPOS>BOND
     1    1    2 1   
     2    1    3 1   
     3    1    4 1   
     4    4    5 1   
     5    4    6 2   
     6    5    7 1   
     7    5   11 1   
     8    5   12 1   
     9    7    8 1   
    10    7    9 1   
    11    7   10 1   
@<TRIPOS>SUBSTRUCTURE
     1 SPV         1 TEMP              0 ****  ****    0 ROOT
