@<TRIPOS>MOLECULE
SPW
   44    43     1     0     0
SMALL
bcc


@<TRIPOS>ATOM
      1 N1           0.0000     0.0000     0.0000 nz         1 SPW       0.090900
      2 C2           1.4710     0.0000     0.0000 c3         1 SPW      -0.038700
      3 C3           2.0510     0.0000     1.4160 c3         1 SPW      -0.033900
      4 C4           3.5830     0.0130     1.3740 c3         1 SPW       0.007800
      5 N5           4.1550    -1.3820     1.3810 ny         1 SPW      -0.010000
      6 C6           5.6610    -1.4180     1.4890 c3         1 SPW       0.004300
      7 C7           6.1440    -2.8690     1.5200 c3         1 SPW      -0.018900
      8 C8           7.3160    -3.0620     2.4850 c3         1 SPW      -0.018900
      9 C9           7.7880    -4.5220     2.5190 c3         1 SPW       0.004300
     10 N10          8.9460    -4.7350     3.4680 ny         1 SPW      -0.010000
     11 C11          9.0100    -6.1450     3.9980 c3         1 SPW       0.007800
     12 C12         10.3990    -6.4930     4.5290 c3         1 SPW      -0.033900
     13 C13         10.4510    -7.9280     5.0580 c3         1 SPW      -0.038700
     14 N14         11.7960    -8.2600     5.5670 nz         1 SPW       0.090900
     15 H1A         -0.3360     0.0610    -0.9480 hn         1 SPW       0.244800
     16 H1B         -0.3360    -0.8510     0.4210 hn         1 SPW       0.244800
     17 H1C         -0.3360     0.7900     0.5270 hn         1 SPW       0.244800
     18 H5A          3.8820    -1.8460     0.5290 hn         1 SPW       0.254300
     19 H5B          3.7640    -1.8860     2.1610 hn         1 SPW       0.254300
     20 HXT          8.8520    -4.1000     4.2440 hn         1 SPW       0.254300
     21 HXU          9.8060    -4.5310     2.9830 hn         1 SPW       0.254300
     22 HXX         11.7870    -9.1870     5.9610 hn         1 SPW       0.244800
     23 HXY         12.4600    -8.2230     4.8100 hn         1 SPW       0.244800
     24 HXZ         12.0590    -7.5960     6.2770 hn         1 SPW       0.244800
     25 H2A          1.8220     0.8820    -0.5230 hx         1 SPW       0.089950
     26 H2B          1.8220    -0.8820    -0.5230 hx         1 SPW       0.089950
     27 H3A          1.7160    -0.8880     1.9380 hc         1 SPW       0.058450
     28 H3B          1.7010     0.8790     1.9440 hc         1 SPW       0.058450
     29 H4A          3.9550     0.5510     2.2370 hx         1 SPW       0.094700
     30 H4B          3.9070     0.5220     0.4740 hx         1 SPW       0.094700
     31 H6A          6.0950    -0.9120     0.6350 hx         1 SPW       0.089450
     32 H6B          5.9690    -0.9170     2.3990 hx         1 SPW       0.089450
     33 H7A          6.4580    -3.1570     0.5240 hc         1 SPW       0.045200
     34 H7B          5.3250    -3.5060     1.8290 hc         1 SPW       0.045200
     35 H8A          8.1390    -2.4320     2.1710 hc         1 SPW       0.045200
     36 H8B          7.0060    -2.7680     3.4800 hc         1 SPW       0.045200
     37 H9A          8.0940    -4.8130     1.5210 hx         1 SPW       0.089450
     38 H9B          6.9610    -5.1490     2.8290 hx         1 SPW       0.089450
     39 H111         8.2890    -6.2530     4.7990 hx         1 SPW       0.094700
     40 H112         8.7550    -6.8330     3.2000 hx         1 SPW       0.094700
     41 H121        10.6530    -5.8110     5.3310 hc         1 SPW       0.058450
     42 H122        11.1220    -6.3840     3.7290 hc         1 SPW       0.058450
     43 H131         9.7310    -8.0380     5.8590 hx         1 SPW       0.089950
     44 H132        10.1970    -8.6110     4.2560 hx         1 SPW       0.089950
@<TRIPOS>BOND
     1     1     2 1   
     2     1    15 1   
     3     1    16 1   
     4     1    17 1   
     5     2     3 1   
     6     2    25 1   
     7     2    26 1   
     8     3     4 1   
     9     3    27 1   
    10     3    28 1   
    11     4     5 1   
    12     4    29 1   
    13     4    30 1   
    14     5     6 1   
    15     5    18 1   
    16     5    19 1   
    17     6     7 1   
    18     6    31 1   
    19     6    32 1   
    20     7     8 1   
    21     7    33 1   
    22     7    34 1   
    23     8     9 1   
    24     8    35 1   
    25     8    36 1   
    26     9    10 1   
    27     9    37 1   
    28     9    38 1   
    29    10    11 1   
    30    10    20 1   
    31    10    21 1   
    32    11    12 1   
    33    11    39 1   
    34    11    40 1   
    35    12    13 1   
    36    12    41 1   
    37    12    42 1   
    38    13    14 1   
    39    13    43 1   
    40    13    44 1   
    41    14    22 1   
    42    14    23 1   
    43    14    24 1   
@<TRIPOS>SUBSTRUCTURE
     1 SPW         1 TEMP              0 ****  ****    0 ROOT
