@<TRIPOS>MOLECULE
SPY
   14    12     1     0     0
SMALL
bcc


@<TRIPOS>ATOM
      1 S           0.1510    0.1020    0.0200 s6        1 SPY      1.468700
      2 N1          6.6110   -1.4080   -2.3000 n1        1 SPY     -0.579600
      3 C2          7.7070   -1.6550   -2.6720 c1        1 SPY      0.406800
      4 C3          0.1380    1.1130    2.5620 c2        1 SPY     -0.125000
      5 C4          0.4140    1.2760    1.2760 c2        1 SPY     -0.371100
      6 C5          4.2750   -0.8810   -1.5070 c1        1 SPY     -0.018500
      7 C6          5.3880   -1.1320   -1.8850 cg        1 SPY     -0.085200
      8 O2S         1.4520   -0.1740   -0.4880 o         1 SPY     -0.758200
      9 O2         -0.4490   -1.0190    0.6410 o         1 SPY     -0.758200
     10 H2          0.3190    1.8820    3.3250 ha        1 SPY      0.090500
     11 H3         -0.2990    0.1770    2.9450 ha        1 SPY      0.090500
     12 H5          0.8480    2.2220    0.9220 h4        1 SPY      0.128000
     13 H6          3.2740   -0.6540   -1.1660 ha        1 SPY      0.267500
     14 O1S        -0.6760    0.7550   -0.9240 o         1 SPY     -0.758200
@<TRIPOS>BOND
     1    1    5 1   
     2    1    8 1   
     3    1    9 1   
     4    1   14 1   
     5    2    3 3   
     6    2    7 1   
     7    4    5 2   
     8    4   10 1   
     9    4   11 1   
    10    5   12 1   
    11    6    7 3   
    12    6   13 1   
@<TRIPOS>SUBSTRUCTURE
     1 SPY         1 TEMP              0 ****  ****    0 ROOT
