@<TRIPOS>MOLECULE
molecule
   14    14     1     0     0
SMALL
bcc


@<TRIPOS>ATOM
      1 S            0.0000     0.0000     0.0000 s6         1 SPY       1.320100
      2 N1           4.4950     0.0000     0.0000 nb         1 SPY      -0.702000
      3 C2           3.8530     0.0000     1.1520 ca         1 SPY       0.369200
      4 C3           2.4720    -0.0000     1.1910 ca         1 SPY      -0.161300
      5 C4           1.7620    -0.0000    -0.0000 ca         1 SPY      -0.221500
      6 C5           2.4720     0.0010    -1.1910 ca         1 SPY      -0.161300
      7 C6           3.8540     0.0010    -1.1520 ca         1 SPY       0.369200
      8 O2S         -0.4010    -0.5440    -1.2500 o          1 SPY      -0.706200
      9 O2          -0.4010    -0.5450     1.2500 o          1 SPY      -0.706200
     10 H2           4.4150    -0.0000     2.0780 h4         1 SPY       0.000100
     11 H3           1.9510    -0.0000     2.1400 ha         1 SPY       0.153000
     12 H5           1.9510     0.0010    -2.1400 ha         1 SPY       0.153000
     13 H6           4.4160     0.0010    -2.0780 h4         1 SPY       0.000100
     14 O1S         -0.4510     1.4530     0.0010 o          1 SPY      -0.706200
@<TRIPOS>BOND
     1     1     8 1
     2     1     9 1
     3     1    14 1
     4     2     3 ar
     5     2     7 ar
     6     3     4 ar
     7     3    10 1
     8     4     5 ar
     9     4    11 1
    10     5     1 1
    11     6     5 ar
    12     6    12 1
    13     7     6 ar
    14     7    13 1
@<TRIPOS>SUBSTRUCTURE
     1 SPY         1 TEMP              0 ****  ****    0 ROOT
