@<TRIPOS>MOLECULE
molecule
   48    47     1     0     0
SMALL
bcc


@<TRIPOS>ATOM
      1 N1B          0.0000     0.0000     0.0000 nz         1 SPZ      -0.814600
      2 C1C          1.4690     0.0000     0.0000 c3         1 SPZ       0.101000
      3 C1A          1.9790     0.0000     1.4420 c3         1 SPZ      -0.119100
      4 C1D          1.9780    -1.2500    -0.7210 c3         1 SPZ      -0.113900
      5 C1E          1.5740    -1.1890    -2.1950 c3         1 SPZ       0.147800
      6 N1F          2.0620    -2.3890    -2.8880 n7         1 SPZ      -0.808700
      7 C1G          1.6900    -2.3650    -4.3080 c3         1 SPZ       0.157300
      8 C1H          2.2170    -3.6280    -4.9950 c3         1 SPZ      -0.081400
      9 C1I          1.8300    -3.6020    -6.4740 c3         1 SPZ      -0.081400
     10 C1J          2.3550    -4.8650    -7.1610 c3         1 SPZ       0.157300
     11 N1K          1.9840    -4.8410    -8.5810 n7         1 SPZ      -0.808700
     12 C1L          2.4730    -6.0410    -9.2740 c3         1 SPZ       0.147800
     13 C1M          2.0680    -5.9800   -10.7480 c3         1 SPZ      -0.113900
     14 C1N          2.5760    -7.2300   -11.4690 c3         1 SPZ       0.101000
     15 C1P          2.2810    -7.1110   -12.9650 c3         1 SPZ      -0.119100
     16 N1O          1.9010    -8.4170   -10.9280 nz         1 SPZ      -0.814600
     17 HN1B        -0.3340    -0.8650    -0.3770 hn         1 SPZ       0.456800
     18 HN1A        -0.3340     0.1060     0.9380 hn         1 SPZ       0.456800
     19 H1C          1.8300     0.8840    -0.5110 hx         1 SPZ       0.117200
     20 H1A          2.0110     1.0170     1.8140 hc         1 SPZ       0.080033
     21 H1AA         1.3130    -0.5890     2.0610 hc         1 SPZ       0.080033
     22 H1AB         2.9740    -0.4280     1.4730 hc         1 SPZ       0.080033
     23 H1D          3.0580    -1.2950    -0.6450 hc         1 SPZ       0.094200
     24 H1DA         1.5470    -2.1320    -0.2640 hc         1 SPZ       0.094200
     25 H1E          0.4940    -1.1430    -2.2710 h1         1 SPZ       0.028700
     26 H1EA         2.0060    -0.3070    -2.6520 h1         1 SPZ       0.028700
     27 HN1F         3.0580    -2.4400    -2.8040 hn         1 SPZ       0.365300
     28 H1G          2.1230    -1.4900    -4.7800 h1         1 SPZ       0.040700
     29 H1GA         0.6110    -2.3270    -4.3990 h1         1 SPZ       0.040700
     30 H1H          1.7850    -4.5020    -4.5230 hc         1 SPZ       0.056200
     31 H1HA         3.2960    -3.6650    -4.9040 hc         1 SPZ       0.056200
     32 H1I          0.7510    -3.5640    -6.5640 hc         1 SPZ       0.056200
     33 H1IA         2.2620    -2.7280    -6.9460 hc         1 SPZ       0.056200
     34 H1J          3.4330    -4.9030    -7.0690 h1         1 SPZ       0.040700
     35 H1JA         1.9210    -5.7390    -6.6890 h1         1 SPZ       0.040700
     36 HN1K         0.9880    -4.7900    -8.6650 hn         1 SPZ       0.365300
     37 H1L          2.0400    -6.9230    -8.8170 h1         1 SPZ       0.028700
     38 H1LA         3.5520    -6.0880    -9.1970 h1         1 SPZ       0.028700
     39 H1M          0.9880    -5.9330   -10.8240 hc         1 SPZ       0.094200
     40 H1MA         2.5010    -5.0980   -11.2050 hc         1 SPZ       0.094200
     41 H1N          3.6450    -7.3230   -11.3190 hx         1 SPZ       0.117200
     42 H1P          2.2670    -6.0660   -13.2490 hc         1 SPZ       0.080033
     43 H1PA         1.3160    -7.5560   -13.1790 hc         1 SPZ       0.080033
     44 H1PB         3.0490    -7.6280   -13.5270 hc         1 SPZ       0.080033
     45 HN1O         2.5620    -8.9790   -10.4300 hn         1 SPZ       0.456800
     46 HN1C         1.5090    -8.9490   -11.6800 hn         1 SPZ       0.456800
     47 H1B3        -0.3330     0.7590    -0.5600 hn         1 SPZ       0.456800
     48 H1O3         1.1670    -8.1310   -10.3100 hn         1 SPZ       0.456800
@<TRIPOS>BOND
     1     1     2 1
     2     2     3 1
     3     2     4 1
     4     4     5 1
     5     5     6 1
     6     6     7 1
     7     7     8 1
     8     8     9 1
     9     9    10 1
    10    10    11 1
    11    11    12 1
    12    12    13 1
    13    13    14 1
    14    14    15 1
    15    14    16 1
    16     1    17 1
    17     1    18 1
    18     2    19 1
    19     3    20 1
    20     3    21 1
    21     3    22 1
    22     4    23 1
    23     4    24 1
    24     5    25 1
    25     5    26 1
    26     6    27 1
    27     7    28 1
    28     7    29 1
    29     8    30 1
    30     8    31 1
    31     9    32 1
    32     9    33 1
    33    10    34 1
    34    10    35 1
    35    11    36 1
    36    12    37 1
    37    12    38 1
    38    13    39 1
    39    13    40 1
    40    14    41 1
    41    15    42 1
    42    15    43 1
    43    15    44 1
    44    16    45 1
    45    16    46 1
    46    47     1 1
    47    48    16 1
@<TRIPOS>SUBSTRUCTURE
     1 SPZ         1 TEMP              0 ****  ****    0 ROOT
