@<TRIPOS>MOLECULE
molecule
   23    23     1     0     0
SMALL
bcc


@<TRIPOS>ATOM
      1 O1           0.0000     0.0000     0.0000 o          1 SQ       -0.437100
      2 O2           2.3800     0.3550    -2.1920 o          1 SQ       -0.426100
      3 N1           2.7260     1.3430     1.4600 n7         1 SQ       -0.757200
      4 N2           4.5700    -0.1010    -0.0330 n7         1 SQ       -0.759200
      5 C1           2.3010     0.0000     1.0510 cy         1 SQ        0.024500
      6 C2           1.2080     0.0000     0.0000 c          1 SQ        0.428100
      7 C3           2.2850     0.0010    -1.0420 c          1 SQ        0.482100
      8 C4           3.2030    -0.6370    -0.0190 cy         1 SQ        0.040500
      9 C6           2.2740     1.5280     2.8450 c3         1 SQ        0.137800
     10 C7           2.6880     2.9150     3.3380 c3         1 SQ       -0.094100
     11 H1           2.2880     2.0250     0.8730 hn         1 SQ        0.367800
     12 H3           4.8340     0.1670     0.8950 hn         1 SQ        0.376800
     13 H2           2.0900    -0.6720     1.8750 h1         1 SQ        0.089700
     14 H4           3.1480    -1.7190    -0.0230 h1         1 SQ        0.082700
     15 H10          5.0800    -1.5640    -1.4440 h1         1 SQ        0.035700
     16 H11          5.4480    -1.9850     0.2350 h1         1 SQ        0.035700
     17 H12          6.4530    -0.8080    -0.6230 h1         1 SQ        0.035700
     18 H5           2.7250     0.7720     3.4760 h1         1 SQ        0.038700
     19 H6           1.1950     1.4370     2.8870 h1         1 SQ        0.038700
     20 H7           2.1630     3.6730     2.7680 hc         1 SQ        0.043367
     21 H8           2.4380     3.0150     4.3870 hc         1 SQ        0.043367
     22 H9           3.7560     3.0410     3.2070 hc         1 SQ        0.043367
     23 C5           5.4450    -1.1860    -0.4970 c3         1 SQ        0.129100
@<TRIPOS>BOND
     1     1     6 2
     2     2     7 2
     3     3     5 1
     4     3     9 1
     5     3    11 1
     6     4     8 1
     7     4    23 1
     8     4    12 1
     9     5     6 1
    10     5     8 1
    11     5    13 1
    12     6     7 1
    13     7     8 1
    14     8    14 1
    15    23    15 1
    16    23    16 1
    17    23    17 1
    18     9    10 1
    19     9    18 1
    20     9    19 1
    21    10    20 1
    22    10    21 1
    23    10    22 1
@<TRIPOS>SUBSTRUCTURE
     1 SQ          1 TEMP              0 ****  ****    0 ROOT
