@<TRIPOS>MOLECULE
SQ9
   54    57     1     0     0
SMALL
bcc


@<TRIPOS>ATOM
      1 N1           0.0000     0.0000     0.0000 nb         1 SQ9      -0.753000
      2 C2           1.3270     0.0000     0.0000 ca         1 SQ9       0.747900
      3 N2           1.9960     0.0000    -1.2140 nv         1 SQ9      -0.479500
      4 N3           2.0330     0.0000     1.1160 nb         1 SQ9      -0.702000
      5 C4           1.4210     0.0000     2.3060 ca         1 SQ9       0.610300
      6 C5           0.0150    -0.0000     2.3420 ca         1 SQ9      -0.596800
      7 C6          -0.6860    -0.0010     1.1380 ca         1 SQ9       0.744600
      8 O6          -2.0420    -0.0010     1.1280 os         1 SQ9      -0.435100
      9 N7          -0.3380     0.0000     3.6770 na         1 SQ9       0.344700
     10 C8           0.8230     0.0000     4.3980 cc         1 SQ9       0.238400
     11 N9           1.8510     0.0000     3.5800 nd         1 SQ9      -0.616700
     12 CAK         -2.6800    -0.0000    -0.1500 c3         1 SQ9       0.218400
     13 CAL         -4.1990    -0.0010     0.0390 c3         1 SQ9      -0.062700
     14 CAM          0.9090    -0.0000     5.8740 ca         1 SQ9      -0.094900
     15 CAO         -0.1580     0.1390     8.0210 ca         1 SQ9      -0.106000
     16 CAP         -4.8830     0.1240    -1.3240 c3         1 SQ9      -0.019900
     17 CAQ         -6.4010     0.1250    -1.1350 c3         1 SQ9      -0.022400
     18 CAR         -6.8310    -1.1820    -0.4670 c3         1 SQ9      -0.025400
     19 CAS         -6.1470    -1.3090     0.8960 c3         1 SQ9      -0.022400
     20 CAT         -4.6290    -1.3080     0.7070 c3         1 SQ9      -0.019900
     21 CAU         -0.2460     0.1400     6.6440 ca         1 SQ9      -0.008000
     22 CAV          1.0720    -0.0010     8.6390 ca         1 SQ9       0.028000
     23 CAW          2.2210    -0.1460     7.8800 ca         1 SQ9      -0.220500
     24 CAX          2.1470    -0.1460     6.5030 ca         1 SQ9       0.046700
     25 CAY          3.3990    -0.3040     5.6800 c3         1 SQ9       0.010200
     26 SAZ          3.7830    -0.3230     8.6770 sy         1 SQ9       0.949200
     27 OBA          3.5240    -0.3120    10.0740 o          1 SQ9      -0.495800
     28 NBB          4.3470    -1.8380     8.3180 nz         1 SQ9      -0.153500
     29 OBC          4.6630     0.5940     8.0420 o          1 SQ9      -0.495800
     30 HN2          1.4780     0.0010    -2.0700 hn         1 SQ9       0.280300
     31 HN2A         2.9960    -0.0010    -1.2340 hn         1 SQ9       0.280300
     32 HN7         -1.2680     0.0000     4.0470 hn         1 SQ9       0.132700
     33 HAK         -2.3850     0.8850    -0.7010 h1         1 SQ9       0.018200
     34 HAKA        -2.3840    -0.8840    -0.7020 h1         1 SQ9       0.018200
     35 HAL         -4.4900     0.8340     0.6640 hc         1 SQ9       0.036700
     36 HAO         -1.0540     0.2500     8.6190 ha         1 SQ9       0.133000
     37 HAP         -4.5980    -0.7140    -1.9480 hc         1 SQ9       0.016700
     38 HAPA        -4.5780     1.0510    -1.7950 hc         1 SQ9       0.016700
     39 HAQ         -6.8840     0.2110    -2.1010 hc         1 SQ9       0.015950
     40 HAQA        -6.6850     0.9610    -0.5070 hc         1 SQ9       0.015950
     41 HAR         -6.5430    -2.0180    -1.0930 hc         1 SQ9       0.017700
     42 HARA        -7.9060    -1.1800    -0.3310 hc         1 SQ9       0.017700
     43 HAS         -6.4510    -2.2360     1.3660 hc         1 SQ9       0.015950
     44 HASA        -6.4320    -0.4710     1.5210 hc         1 SQ9       0.015950
     45 HAT         -4.3450    -2.1440     0.0780 hc         1 SQ9       0.016700
     46 HATA        -4.1470    -1.3950     1.6720 hc         1 SQ9       0.016700
     47 HAU         -1.2090     0.2500     6.1610 ha         1 SQ9       0.115000
     48 HAV          1.1350    -0.0020     9.7200 ha         1 SQ9       0.137000
     49 HAY          3.5120     0.5520     5.0260 hc         1 SQ9       0.039033
     50 HAYA         4.2580    -0.3710     6.3370 hc         1 SQ9       0.039033
     51 HAYB         3.3290    -1.2060     5.0850 hc         1 SQ9       0.039033
     52 HNBB         4.6640    -2.2830     9.1570 hn         1 SQ9       0.320467
     53 HNBA         3.6120    -2.3800     7.9100 hn         1 SQ9       0.320467
     54 HBB3         5.1070    -1.7660     7.6710 hn         1 SQ9       0.320467
@<TRIPOS>BOND
     1     1     2 ar  
     2     1     7 ar  
     3     2     3 1   
     4     2     4 ar  
     5     3    30 1   
     6     3    31 1   
     7     4     5 ar  
     8     5     6 ar  
     9     5    11 1   
    10     6     7 ar  
    11     6     9 1   
    12     7     8 1   
    13     8    12 1   
    14     9    10 1   
    15     9    32 1   
    16    10    11 2   
    17    10    14 1   
    18    12    13 1   
    19    12    33 1   
    20    12    34 1   
    21    13    16 1   
    22    13    20 1   
    23    13    35 1   
    24    14    21 ar  
    25    14    24 ar  
    26    15    21 ar  
    27    15    22 ar  
    28    15    36 1   
    29    16    17 1   
    30    16    37 1   
    31    16    38 1   
    32    17    18 1   
    33    17    39 1   
    34    17    40 1   
    35    18    19 1   
    36    18    41 1   
    37    18    42 1   
    38    19    20 1   
    39    19    43 1   
    40    19    44 1   
    41    20    45 1   
    42    20    46 1   
    43    21    47 1   
    44    22    23 ar  
    45    22    48 1   
    46    23    24 ar  
    47    23    26 1   
    48    24    25 1   
    49    25    49 1   
    50    25    50 1   
    51    25    51 1   
    52    26    27 2   
    53    26    28 1   
    54    26    29 2   
    55    28    52 1   
    56    28    53 1   
    57    28    54 1   
@<TRIPOS>SUBSTRUCTURE
     1 SQ9         1 TEMP              0 ****  ****    0 ROOT
