@<TRIPOS>MOLECULE
molecule
   81    80     1     0     0
SMALL
bcc


@<TRIPOS>ATOM
      1 C1           0.0000     0.0000     0.0000 c3         1 SQA       0.147100
      2 N2           1.4650     0.0000     0.0000 n3         1 SQA      -0.723600
      3 C3           1.9780     0.0000     1.3640 c3         1 SQA       0.160800
      4 C4           1.4750     1.2280     2.1220 c3         1 SQA      -0.080400
      5 C5           1.9990     1.2380     3.5610 c3         1 SQA      -0.034200
      6 C6           1.4910     2.4220     4.3500 c2         1 SQA      -0.126400
      7 C7           0.3820     2.4010     5.1150 c2         1 SQA      -0.172200
      8 C8          -0.1660     3.5260     5.9510 c3         1 SQA      -0.028200
      9 C9          -1.2090     4.3430     5.1770 c3         1 SQA      -0.032200
     10 C10         -2.4250     3.6020     4.6430 c2         1 SQA      -0.125400
     11 C11         -2.7280     3.4970     3.3330 c2         1 SQA      -0.167200
     12 C12         -3.9250     2.7910     2.7520 c3         1 SQA      -0.030200
     13 C13         -5.1570     3.6940     2.5920 c3         1 SQA      -0.030200
     14 C14         -4.9180     4.8730     1.6900 c2         1 SQA      -0.174200
     15 C15         -5.1530     4.9630     0.3670 c2         1 SQA      -0.121400
     16 C16         -4.8840     6.2670    -0.3610 c3         1 SQA      -0.034200
     17 C17         -3.9080     6.1400    -1.5380 c3         1 SQA      -0.034200
     18 C18         -2.5300     5.7250    -1.1010 c2         1 SQA      -0.171200
     19 C19         -1.7990     4.6780    -1.5290 c2         1 SQA      -0.124400
     20 C20         -0.4190     4.4320    -0.9480 c3         1 SQA      -0.038200
     21 C21          0.7170     5.0580    -1.7650 c3         1 SQA      -0.029200
     22 C22          2.0740     4.7110    -1.2190 c2         1 SQA      -0.177200
     23 C23          2.8430     5.4340    -0.3810 c2         1 SQA      -0.130400
     24 C24          4.1960     5.0250     0.1250 c3         1 SQA      -0.052900
     25 C25          1.9710    -1.1570    -0.7420 c3         1 SQA       0.147100
     26 C26          2.3360     3.6640     4.2640 c3         1 SQA      -0.056900
     27 C27         -3.2790     3.0020     5.7320 c3         1 SQA      -0.055900
     28 C28         -5.6960     3.8470    -0.4810 c3         1 SQA      -0.049900
     29 C29         -2.2470     3.6660    -2.5460 c3         1 SQA      -0.050900
     30 C30          2.3740     6.7770     0.1110 c3         1 SQA      -0.052900
     31 H1C1        -0.3610     0.9960     0.2280 h1         1 SQA       0.031867
     32 H1C2        -0.3610    -0.3000    -0.9760 h1         1 SQA       0.031867
     33 H1C3        -0.3610    -0.6950     0.7480 h1         1 SQA       0.031867
     34 H3C1         1.6440    -0.8960     1.8720 h1         1 SQA       0.030700
     35 H3C2         3.0610     0.0140     1.3380 h1         1 SQA       0.030700
     36 H4C1         0.3910     1.2170     2.1380 hc         1 SQA       0.053200
     37 H4C2         1.8130     2.1230     1.6140 hc         1 SQA       0.053200
     38 H5C1         3.0810     1.2690     3.5400 hc         1 SQA       0.042200
     39 H5C2         1.6840     0.3260     4.0550 hc         1 SQA       0.042200
     40 H7          -0.1730     1.4710     5.1560 ha         1 SQA       0.115000
     41 H8C1        -0.6280     3.1140     6.8400 hc         1 SQA       0.045200
     42 H8C2         0.6480     4.1770     6.2440 hc         1 SQA       0.045200
     43 H9C1        -0.7080     4.8070     4.3350 hc         1 SQA       0.041700
     44 H9C2        -1.5630     5.1310     5.8300 hc         1 SQA       0.041700
     45 H11         -2.0590     3.9710     2.6240 ha         1 SQA       0.122000
     46 H121        -4.1860     1.9630     3.4000 hc         1 SQA       0.043700
     47 H122        -3.6560     2.3980     1.7790 hc         1 SQA       0.043700
     48 H131        -5.4480     4.0590     3.5700 hc         1 SQA       0.042700
     49 H132        -5.9690     3.1040     2.1850 hc         1 SQA       0.042700
     50 H14         -4.5360     5.7600     2.1800 ha         1 SQA       0.116000
     51 H161        -4.4770     6.9790     0.3480 hc         1 SQA       0.043700
     52 H162        -5.8250     6.6530    -0.7340 hc         1 SQA       0.043700
     53 H171        -4.2920     5.4030    -2.2320 hc         1 SQA       0.045700
     54 H172        -3.8420     7.0960    -2.0420 hc         1 SQA       0.045700
     55 H18         -2.0810     6.3540    -0.3420 ha         1 SQA       0.114000
     56 H201        -0.3890     4.8410     0.0540 hc         1 SQA       0.047200
     57 H202        -0.2550     3.3630    -0.8910 hc         1 SQA       0.047200
     58 H211         0.6500     4.7040    -2.7870 hc         1 SQA       0.044200
     59 H212         0.6020     6.1350    -1.7590 hc         1 SQA       0.044200
     60 H22          2.4730     3.7600    -1.5480 ha         1 SQA       0.117000
     61 H241         4.2560     5.2170     1.1900 hc         1 SQA       0.039700
     62 H242         4.3460     3.9680    -0.0600 hc         1 SQA       0.039700
     63 H243         4.9610     5.5940    -0.3880 hc         1 SQA       0.039700
     64 H251         3.0540    -1.1320    -0.7530 h1         1 SQA       0.031867
     65 H252         1.5990    -1.1250    -1.7590 h1         1 SQA       0.031867
     66 H253         1.6350    -2.0680    -0.2620 h1         1 SQA       0.031867
     67 H261         2.5610     4.0170     5.2630 hc         1 SQA       0.039700
     68 H262         3.2590     3.4380     3.7440 hc         1 SQA       0.039700
     69 H263         1.7950     4.4310     3.7230 hc         1 SQA       0.039700
     70 H271        -2.9040     3.3140     6.6990 hc         1 SQA       0.038700
     71 H272        -4.3020     3.3390     5.6160 hc         1 SQA       0.038700
     72 H273        -3.2460     1.9210     5.6630 hc         1 SQA       0.038700
     73 H281        -5.9430     4.2280    -1.4650 hc         1 SQA       0.040033
     74 H282        -4.9500     3.0670    -0.5730 hc         1 SQA       0.040033
     75 H283        -6.5870     3.4410    -0.0170 hc         1 SQA       0.040033
     76 H291        -2.8260     4.1600    -3.3170 hc         1 SQA       0.040033
     77 H292        -1.3800     3.1940    -2.9930 hc         1 SQA       0.040033
     78 H293        -2.8580     2.9130    -2.0620 hc         1 SQA       0.040033
     79 H301         3.1400     7.2200     0.7370 hc         1 SQA       0.039700
     80 H302         1.4640     6.6540     0.6860 hc         1 SQA       0.039700
     81 H303         2.1810     7.4250    -0.7360 hc         1 SQA       0.039700
@<TRIPOS>BOND
     1     1     2 1
     2     1    31 1
     3     1    32 1
     4     1    33 1
     5     2     3 1
     6     2    25 1
     7     3     4 1
     8     3    34 1
     9     3    35 1
    10     4     5 1
    11     4    36 1
    12     4    37 1
    13     5     6 1
    14     5    38 1
    15     5    39 1
    16     6     7 2
    17     6    26 1
    18     7     8 1
    19     7    40 1
    20     8     9 1
    21     8    41 1
    22     8    42 1
    23     9    10 1
    24     9    43 1
    25     9    44 1
    26    10    11 2
    27    10    27 1
    28    11    12 1
    29    11    45 1
    30    12    13 1
    31    12    46 1
    32    12    47 1
    33    13    14 1
    34    13    48 1
    35    13    49 1
    36    14    15 2
    37    14    50 1
    38    15    16 1
    39    15    28 1
    40    16    17 1
    41    16    51 1
    42    16    52 1
    43    17    18 1
    44    17    53 1
    45    17    54 1
    46    18    19 2
    47    18    55 1
    48    19    20 1
    49    19    29 1
    50    20    21 1
    51    20    56 1
    52    20    57 1
    53    21    22 1
    54    21    58 1
    55    21    59 1
    56    22    23 2
    57    22    60 1
    58    23    24 1
    59    23    30 1
    60    24    61 1
    61    24    62 1
    62    24    63 1
    63    25    64 1
    64    25    65 1
    65    25    66 1
    66    26    67 1
    67    26    68 1
    68    26    69 1
    69    27    70 1
    70    27    71 1
    71    27    72 1
    72    28    73 1
    73    28    74 1
    74    28    75 1
    75    29    76 1
    76    29    77 1
    77    29    78 1
    78    30    79 1
    79    30    80 1
    80    30    81 1
@<TRIPOS>SUBSTRUCTURE
     1 SQA         1 TEMP              0 ****  ****    0 ROOT
