@<TRIPOS>MOLECULE
SQA
   81    85     1     0     0
SMALL
bcc


@<TRIPOS>ATOM
      1 C1           0.0000     0.0000     0.0000 c3         1 SQA      -0.100000
      2 N2           1.4650     0.0000     0.0000 n3         1 SQA      -0.056000
      3 C3           1.9780     0.0000     1.3640 c3         1 SQA      -0.083000
      4 C4           1.4750     1.2280     2.1220 c3         1 SQA      -0.115000
      5 C5           1.9990     1.2380     3.5610 c3         1 SQA      -0.074000
      6 C6           1.4910     2.4220     4.3500 c2         1 SQA       0.070000
      7 C7           0.3820     2.4010     5.1150 c2         1 SQA      -0.574000
      8 C8          -0.1660     3.5260     5.9510 DU         1 SQA       0.072000
      9 C9          -1.2090     4.3430     5.1770 c3         1 SQA      -0.124000
     10 C10         -2.4250     3.6020     4.6430 c2         1 SQA       0.072000
     11 C11         -2.7280     3.4970     3.3330 c2         1 SQA      -0.520000
     12 C12         -3.9250     2.7910     2.7520 DU         1 SQA       0.024000
     13 C13         -5.1570     3.6940     2.5920 DU         1 SQA       0.023000
     14 C14         -4.9180     4.8730     1.6900 c2         1 SQA      -0.501000
     15 C15         -5.1530     4.9630     0.3670 c2         1 SQA       0.060000
     16 C16         -4.8840     6.2670    -0.3610 c3         1 SQA      -0.083000
     17 C17         -3.9080     6.1400    -1.5380 DU         1 SQA       0.107000
     18 C18         -2.5300     5.7250    -1.1010 c2         1 SQA      -0.437000
     19 C19         -1.7990     4.6780    -1.5290 c2         1 SQA       0.003000
     20 C20         -0.4190     4.4320    -0.9480 c3         1 SQA      -0.121000
     21 C21          0.7170     5.0580    -1.7650 DU         1 SQA       0.095000
     22 C22          2.0740     4.7110    -1.2190 c2         1 SQA      -0.491000
     23 C23          2.8430     5.4340    -0.3810 c2         1 SQA      -0.002000
     24 C24          4.1960     5.0250     0.1250 c3         1 SQA      -0.111500
     25 C25          1.9710    -1.1570    -0.7420 c3         1 SQA      -0.100000
     26 C26          2.3360     3.6640     4.2640 c3         1 SQA      -0.160000
     27 C27         -3.2790     3.0020     5.7320 c3         1 SQA      -0.148000
     28 C28         -5.6960     3.8470    -0.4810 c3         1 SQA      -0.148000
     29 C29         -2.2470     3.6660    -2.5460 c3         1 SQA      -0.122000
     30 C30          2.3740     6.7770     0.1110 c3         1 SQA      -0.111500
     31 H1C1        -0.3610     0.9850     0.2690 h1         1 SQA       0.040000
     32 H1C2        -0.3610    -0.2590    -0.9880 h1         1 SQA       0.040000
     33 H1C3        -0.3610    -0.7260     0.7180 h1         1 SQA       0.040000
     34 H3C1         3.0610     0.0140     1.3380 h1         1 SQA       0.046500
     35 H3C2         1.6440    -0.8960     1.8720 h1         1 SQA       0.046500
     36 H4C1         1.8130     2.1230     1.6140 hc         1 SQA       0.069000
     37 H4C2         0.3910     1.2170     2.1380 hc         1 SQA       0.069000
     38 H5C1         3.0810     1.2690     3.5400 hc         1 SQA       0.065000
     39 H5C2         1.6840     0.3260     4.0550 hc         1 SQA       0.065000
     40 H7           0.1300     3.3770     4.7190 DU         1 SQA       0.250000
     41 H8C1         0.6480     4.1770     6.2440 ha         1 SQA       0.051000
     42 H8C2        -0.6290     3.1130     6.8390 ha         1 SQA       0.051000
     43 H9C1        -1.5630     5.1320     5.8300 hc         1 SQA       0.072500
     44 H9C2        -0.7080     4.8060     4.3350 hc         1 SQA       0.072500
     45 H11         -3.7570     3.6960     3.6030 DU         1 SQA       0.240000
     46 H121        -3.6560     2.3980     1.7790 ha         1 SQA       0.058000
     47 H122        -4.1860     1.9630     3.4000 ha         1 SQA       0.058000
     48 H131        -5.9690     3.1040     2.1850 ha         1 SQA       0.052000
     49 H132        -5.4480     4.0590     3.5700 ha         1 SQA       0.052000
     50 H14         -4.5110     3.8860     1.5050 DU         1 SQA       0.217000
     51 H161        -5.8250     6.6530    -0.7340 hc         1 SQA       0.083000
     52 H162        -4.4770     6.9780     0.3480 hc         1 SQA       0.083000
     53 H171        -3.8420     7.0960    -2.0420 ha         1 SQA       0.028000
     54 H172        -4.2920     5.4030    -2.2320 ha         1 SQA       0.028000
     55 H18         -2.8480     5.8040    -2.1330 DU         1 SQA       0.155000
     56 H201        -0.3890     4.8410     0.0540 hc         1 SQA       0.085000
     57 H202        -0.2550     3.3630    -0.8910 hc         1 SQA       0.085000
     58 H211         0.6500     4.7040    -2.7870 ha         1 SQA       0.044500
     59 H212         0.6020     6.1350    -1.7590 ha         1 SQA       0.044500
     60 H22          1.2470     5.0790    -0.6240 DU         1 SQA       0.201000
     61 H241         4.9570     5.6400    -0.3400 hc         1 SQA       0.054833
     62 H242         4.3730     3.9840    -0.1190 hc         1 SQA       0.054833
     63 H243         4.2330     5.1550     1.2000 hc         1 SQA       0.054833
     64 H251         1.5690    -2.0660    -0.3120 h1         1 SQA       0.040000
     65 H252         3.0530    -1.1780    -0.6840 h1         1 SQA       0.040000
     66 H253         1.6670    -1.0820    -1.7790 h1         1 SQA       0.040000
     67 H261         1.7890     4.4370     3.7370 hc         1 SQA       0.059333
     68 H262         3.2520     3.4410     3.7300 hc         1 SQA       0.059333
     69 H263         2.5740     4.0080     5.2630 hc         1 SQA       0.059333
     70 H271        -4.2730     3.4320     5.6900 hc         1 SQA       0.061667
     71 H272        -2.8350     3.2130     6.6970 hc         1 SQA       0.061667
     72 H273        -3.3440     1.9290     5.5910 hc         1 SQA       0.061667
     73 H281        -4.9480     3.0690    -0.5780 hc         1 SQA       0.058667
     74 H282        -5.9480     4.2290    -1.4630 hc         1 SQA       0.058667
     75 H283        -6.5840     3.4370    -0.0140 hc         1 SQA       0.058667
     76 H291        -2.7520     4.1710    -3.3610 hc         1 SQA       0.057333
     77 H292        -1.3850     3.1340    -2.9300 hc         1 SQA       0.057333
     78 H293        -2.9270     2.9620    -2.0810 hc         1 SQA       0.057333
     79 H301         1.5170     6.6450     0.7610 hc         1 SQA       0.054833
     80 H302         2.0950     7.3940    -0.7340 hc         1 SQA       0.054833
     81 H303         3.1730     7.2590     0.6610 hc         1 SQA       0.054833
@<TRIPOS>BOND
     1     1     2 1   
     2     1    31 1   
     3     1    32 1   
     4     1    33 1   
     5     2     3 1   
     6     2    25 1   
     7     3     4 1   
     8     3    34 1   
     9     3    35 1   
    10     4     5 1   
    11     4    36 1   
    12     4    37 1   
    13     5     6 1   
    14     5    38 1   
    15     5    39 1   
    16     6     7 1   
    17     6    26 1   
    18     7     8 1   
    19     7    40 1   
    20     8     9 1   
    21     8    40 1   
    22     8    41 1   
    23     8    42 1   
    24     9    10 1   
    25     9    43 1   
    26     9    44 1   
    27    10    11 1   
    28    10    27 1   
    29    11    12 1   
    30    11    45 1   
    31    12    13 1   
    32    12    45 1   
    33    12    46 1   
    34    12    47 1   
    35    13    14 1   
    36    13    48 1   
    37    13    49 1   
    38    13    50 1   
    39    14    15 1   
    40    14    50 1   
    41    15    16 1   
    42    15    28 1   
    43    16    17 1   
    44    16    51 1   
    45    16    52 1   
    46    17    18 1   
    47    17    53 1   
    48    17    54 1   
    49    17    55 1   
    50    18    19 1   
    51    18    55 1   
    52    19    20 1   
    53    19    29 1   
    54    20    21 1   
    55    20    56 1   
    56    20    57 1   
    57    21    22 1   
    58    21    58 1   
    59    21    59 1   
    60    21    60 1   
    61    22    23 1   
    62    22    60 1   
    63    23    24 1   
    64    23    30 1   
    65    24    61 1   
    66    24    62 1   
    67    24    63 1   
    68    25    64 1   
    69    25    65 1   
    70    25    66 1   
    71    26    67 1   
    72    26    68 1   
    73    26    69 1   
    74    27    70 1   
    75    27    71 1   
    76    27    72 1   
    77    28    73 1   
    78    28    74 1   
    79    28    75 1   
    80    29    76 1   
    81    29    77 1   
    82    29    78 1   
    83    30    79 1   
    84    30    80 1   
    85    30    81 1   
@<TRIPOS>SUBSTRUCTURE
     1 SQA         1 TEMP              0 ****  ****    0 ROOT
