@<TRIPOS>MOLECULE
SQL
   80    79     1     0     0
SMALL
bcc


@<TRIPOS>ATOM
      1 C1          4.3960    1.1530   -1.6450 c3        1 SQL     -0.057900
      2 C2          3.4840    1.1660   -0.4760 c2        1 SQL     -0.124400
      3 C3          4.1090    0.8840    0.8380 c3        1 SQL     -0.057900
      4 C4          2.1700    1.4150   -0.5970 c2        1 SQL     -0.177200
      5 C5          1.5110    1.7050   -1.8920 c3        1 SQL     -0.043200
      6 C6          0.0020    1.8000   -1.7540 c3        1 SQL     -0.038200
      7 C7         -0.6470    2.1480   -3.0500 c2        1 SQL     -0.123400
      8 C8         -0.4030    3.5160   -3.5660 c3        1 SQL     -0.058900
      9 C9         -1.4180    1.2650   -3.7060 c2        1 SQL     -0.174200
     10 C10        -2.0990    1.5700   -4.9860 c3        1 SQL     -0.043200
     11 C11        -2.7480    0.3390   -5.5920 c3        1 SQL     -0.038200
     12 C12        -3.4760    0.6650   -6.8510 c2        1 SQL     -0.123400
     13 C13        -4.6990    1.4920   -6.7130 c3        1 SQL     -0.058900
     14 C14        -3.0440    0.2220   -8.0430 c2        1 SQL     -0.173200
     15 C15        -3.7420    0.5050   -9.3190 c3        1 SQL     -0.044200
     16 C16        -2.9400    0.0430  -10.5210 c3        1 SQL     -0.044200
     17 C17        -3.6330    0.3350  -11.7970 c2        1 SQL     -0.173200
     18 C18        -3.0660    0.1620  -13.0030 c2        1 SQL     -0.123400
     19 C19        -1.6770   -0.3330  -13.1570 c3        1 SQL     -0.058900
     20 C20        -3.8120    0.4530  -14.2600 c3        1 SQL     -0.038200
     21 C21        -3.2410    1.6590  -14.9840 c3        1 SQL     -0.043200
     22 C22        -3.9420    1.9240  -16.2610 c2        1 SQL     -0.174200
     23 C23        -3.7230    3.0140  -17.0130 c2        1 SQL     -0.123400
     24 C24        -4.4410    3.2270  -18.3010 c3        1 SQL     -0.038200
     25 C25        -5.4130    4.3910  -18.2150 c3        1 SQL     -0.043200
     26 C26        -6.0900    4.6460  -19.5070 c2        1 SQL     -0.177200
     27 C27        -7.0810    5.5400  -19.6580 c2        1 SQL     -0.124400
     28 C28        -7.7320    5.7720  -20.9700 c3        1 SQL     -0.057900
     29 C29        -7.5930    6.3500  -18.5260 c3        1 SQL     -0.057900
     30 C30        -2.7520    4.0620  -16.6160 c3        1 SQL     -0.058900
     31 H1          4.2850    2.0950   -2.2390 hc        1 SQL      0.040533
     32 H2          5.4630    1.0580   -1.3280 hc        1 SQL      0.040533
     33 H3          4.1490    0.2930   -2.3170 hc        1 SQL      0.040533
     34 H4          3.3540    0.8800    1.6620 hc        1 SQL      0.040533
     35 H5          4.6140   -0.1140    0.8160 hc        1 SQL      0.040533
     36 H6          4.8810    1.6600    1.0700 hc        1 SQL      0.040533
     37 H7          1.5170    1.4140    0.2900 ha        1 SQL      0.122000
     38 H8          1.9100    2.6720   -2.3070 hc        1 SQL      0.049700
     39 H9         -0.3940    0.8230   -1.3680 hc        1 SQL      0.045700
     40 H10         0.0970    4.1580   -2.8000 hc        1 SQL      0.041367
     41 H11         0.2520    3.4740   -4.4730 hc        1 SQL      0.041367
     42 H12        -1.3670    4.0020   -3.8600 hc        1 SQL      0.041367
     43 H13        -1.5800    0.2530   -3.3000 ha        1 SQL      0.123000
     44 H14        -1.3590    2.0020   -5.7150 hc        1 SQL      0.050200
     45 H15        -1.9590   -0.4360   -5.7850 hc        1 SQL      0.046200
     46 H16        -4.5240    2.5120   -7.1380 hc        1 SQL      0.041033
     47 H17        -5.5500    1.0280   -7.2720 hc        1 SQL      0.041033
     48 H18        -4.9970    1.6030   -5.6420 hc        1 SQL      0.041033
     49 H19        -2.1300   -0.3890   -8.1160 ha        1 SQL      0.123000
     50 H20        -3.9440    1.6080   -9.4040 hc        1 SQL      0.049200
     51 H21        -4.7430   -0.0080   -9.3170 hc        1 SQL      0.049200
     52 H22        -1.9320    0.5430  -10.5140 hc        1 SQL      0.049200
     53 H23        -4.6670    0.7060  -11.7130 ha        1 SQL      0.123000
     54 H24        -1.5160   -1.2470  -12.5310 hc        1 SQL      0.041033
     55 H25        -0.9500    0.4480  -12.8190 hc        1 SQL      0.041033
     56 H26        -1.4510   -0.5890  -14.2210 hc        1 SQL      0.041033
     57 H27        -3.7590   -0.4460  -14.9320 hc        1 SQL      0.046200
     58 H28        -2.1470    1.4900  -15.1860 hc        1 SQL      0.050200
     59 H29        -4.6720    1.1610  -16.5800 ha        1 SQL      0.123000
     60 H30        -3.6880    3.4290  -19.1110 hc        1 SQL      0.045700
     61 H31        -4.8600    5.3170  -17.8920 hc        1 SQL      0.049700
     62 H32        -6.1800    4.1800  -17.4210 hc        1 SQL      0.049700
     63 H33        -5.7330    4.0560  -20.3670 ha        1 SQL      0.122000
     64 H34        -7.3160    5.1030  -21.7620 hc        1 SQL      0.040533
     65 H35        -7.5830    6.8340  -21.2890 hc        1 SQL      0.040533
     66 H36        -8.8320    5.5830  -20.8900 hc        1 SQL      0.040533
     67 H37        -8.3180    7.1240  -18.8760 hc        1 SQL      0.040533
     68 H38        -6.7500    6.8640  -18.0000 hc        1 SQL      0.040533
     69 H39        -8.1100    5.6910  -17.7840 hc        1 SQL      0.040533
     70 H40        -3.1410    4.6330  -15.7340 hc        1 SQL      0.041367
     71 H41        -2.5670    4.7850  -17.4480 hc        1 SQL      0.041367
     72 H42        -1.7750    3.6010  -16.3240 hc        1 SQL      0.041367
     73 H43         1.7710    0.9040   -2.6370 hc        1 SQL      0.049700
     74 H44        -0.2550    2.5860   -0.9940 hc        1 SQL      0.045700
     75 H45        -2.8820    2.3600   -4.8140 hc        1 SQL      0.050200
     76 H46        -3.4730   -0.1030   -4.8550 hc        1 SQL      0.046200
     77 H47        -2.7520   -1.0640  -10.4450 hc        1 SQL      0.049200
     78 H48        -4.8970    0.6360  -14.0380 hc        1 SQL      0.046200
     79 H49        -3.3100    2.5630  -14.3190 hc        1 SQL      0.050200
     80 H50        -5.0020    2.3000  -18.5950 hc        1 SQL      0.045700
@<TRIPOS>BOND
     1    1    2 1   
     2    1   31 1   
     3    1   32 1   
     4    1   33 1   
     5    2    3 1   
     6    2    4 2   
     7    3   34 1   
     8    3   35 1   
     9    3   36 1   
    10    4    5 1   
    11    4   37 1   
    12    5    6 1   
    13    5   38 1   
    14    5   73 1   
    15    6    7 1   
    16    6   39 1   
    17    6   74 1   
    18    7    8 1   
    19    7    9 2   
    20    8   40 1   
    21    8   41 1   
    22    8   42 1   
    23    9   10 1   
    24    9   43 1   
    25   10   11 1   
    26   10   44 1   
    27   10   75 1   
    28   11   12 1   
    29   11   45 1   
    30   11   76 1   
    31   12   13 1   
    32   12   14 2   
    33   13   46 1   
    34   13   47 1   
    35   13   48 1   
    36   14   15 1   
    37   14   49 1   
    38   15   16 1   
    39   15   50 1   
    40   15   51 1   
    41   16   17 1   
    42   16   52 1   
    43   16   77 1   
    44   17   18 2   
    45   17   53 1   
    46   18   19 1   
    47   18   20 1   
    48   19   54 1   
    49   19   55 1   
    50   19   56 1   
    51   20   21 1   
    52   20   57 1   
    53   20   78 1   
    54   21   22 1   
    55   21   58 1   
    56   21   79 1   
    57   22   23 2   
    58   22   59 1   
    59   23   24 1   
    60   23   30 1   
    61   24   25 1   
    62   24   60 1   
    63   24   80 1   
    64   25   26 1   
    65   25   61 1   
    66   25   62 1   
    67   26   27 2   
    68   26   63 1   
    69   27   28 1   
    70   27   29 1   
    71   28   64 1   
    72   28   65 1   
    73   28   66 1   
    74   29   67 1   
    75   29   68 1   
    76   29   69 1   
    77   30   70 1   
    78   30   71 1   
    79   30   72 1   
@<TRIPOS>SUBSTRUCTURE
     1 SQL         1 TEMP              0 ****  ****    0 ROOT
