@<TRIPOS>MOLECULE
molecule
   80    79     1     0     0
SMALL
bcc


@<TRIPOS>ATOM
      1 C1           0.0000     0.0000     0.0000 c3         1 SQL      -0.073650
      2 C2           1.5070     0.0000     0.0000 c2         1 SQL      -0.045400
      3 C3           2.2610     0.0000     1.3050 c3         1 SQL      -0.073650
      4 C4           2.1620     0.0010    -1.1350 c2         1 SQL      -0.351200
      5 C5           1.4140     0.1280    -2.4370 c3         1 SQL      -0.062700
      6 C6           1.9840     1.2970    -3.2410 c3         1 SQL      -0.017200
      7 C7           1.2360     1.4240    -4.5430 c2         1 SQL      -0.129900
      8 C8           1.6470     0.5940    -5.7320 c3         1 SQL      -0.054400
      9 C9           0.2280     2.2560    -4.6410 c2         1 SQL      -0.182700
     10 C10         -0.4410     2.4750    -5.9730 c3         1 SQL      -0.045700
     11 C11         -1.9420     2.2140    -5.8380 c3         1 SQL      -0.036700
     12 C12         -2.6130     2.4330    -7.1700 c2         1 SQL      -0.052400
     13 C13         -3.0360     3.8190    -7.5820 c3         1 SQL      -0.093900
     14 C14         -2.8260     1.4180    -7.9700 c2         1 SQL      -0.356700
     15 C15         -3.3910     1.6500    -9.3480 c3         1 SQL      -0.082700
     16 C16         -2.4710     1.0120   -10.3910 c3         1 SQL      -0.082700
     17 C17         -3.0360     1.2440   -11.7680 c2         1 SQL      -0.356700
     18 C18         -2.3020     1.8180   -12.6890 c2         1 SQL      -0.052400
     19 C19         -0.8770     2.2040   -12.3850 c3         1 SQL      -0.093900
     20 C20         -2.8820     2.0930   -14.0530 c3         1 SQL      -0.036700
     21 C21         -3.4140     3.5260   -14.1020 c3         1 SQL      -0.045700
     22 C22         -3.9940     3.8010   -15.4650 c2         1 SQL      -0.182700
     23 C23         -5.2290     4.2230   -15.5780 c2         1 SQL      -0.129900
     24 C24         -5.7640     4.6340   -16.9260 c3         1 SQL      -0.017200
     25 C25         -6.4950     3.4530   -17.5680 c3         1 SQL      -0.062700
     26 C26         -7.0300     3.8640   -18.9150 c2         1 SQL      -0.351200
     27 C27         -6.7670     3.1380   -19.9730 c2         1 SQL      -0.045400
     28 C28         -7.1620     3.6300   -21.3420 c3         1 SQL      -0.073650
     29 C29         -6.0710     1.8100   -19.8220 c3         1 SQL      -0.073650
     30 C30         -6.1150     4.2970   -14.3620 c3         1 SQL      -0.054400
     31 H1          -0.3610    -0.8130    -0.6180 hc         1 SQL       0.046533
     32 H2          -0.3610     0.9420    -0.3950 hc         1 SQL       0.046533
     33 H3          -0.3610    -0.1290     1.0130 hc         1 SQL       0.046533
     34 H4           3.3250     0.0340     1.1080 hc         1 SQL       0.046533
     35 H5           2.0250    -0.9010     1.8590 hc         1 SQL       0.046533
     36 H6           1.9740     0.8670     1.8880 hc         1 SQL       0.046533
     37 H7           1.6990    -0.8530    -1.6140 ha         1 SQL       0.223500
     38 H8           0.3650     0.3070    -2.2350 hc         1 SQL       0.040950
     39 H9           3.0330     1.1180    -3.4440 hc         1 SQL       0.054200
     40 H10          0.8230    -0.0440    -6.0280 hc         1 SQL       0.042367
     41 H11          1.9110     1.2480    -6.5540 hc         1 SQL       0.042367
     42 H12          2.5010    -0.0170    -5.4680 hc         1 SQL       0.042367
     43 H13         -0.0670     2.8500    -3.7850 ha         1 SQL       0.124500
     44 H14         -0.2790     3.4960    -6.2950 hc         1 SQL       0.049950
     45 H15         -2.3620     2.8940    -5.1060 hc         1 SQL       0.055700
     46 H16         -2.3820     4.1780    -8.3680 hc         1 SQL       0.045367
     47 H17         -4.0560     3.7930    -7.9450 hc         1 SQL       0.045367
     48 H18         -2.9730     4.4850    -6.7290 hc         1 SQL       0.045367
     49 H19         -2.5200     0.4220    -7.6730 ha         1 SQL       0.243500
     50 H20         -4.3760     1.2040    -9.4140 hc         1 SQL       0.061700
     51 H21         -3.4640     2.7150    -9.5340 hc         1 SQL       0.061700
     52 H22         -2.3990    -0.0530   -10.2050 hc         1 SQL       0.061700
     53 H23         -2.9050     2.0050   -11.0090 ha         1 SQL       0.243500
     54 H24         -0.8690     3.0380   -11.6930 hc         1 SQL       0.045367
     55 H25         -0.3620     1.3620   -11.9400 hc         1 SQL       0.045367
     56 H26         -0.3770     2.4910   -13.3020 hc         1 SQL       0.045367
     57 H27         -3.6910     1.4000   -14.2470 hc         1 SQL       0.055700
     58 H28         -2.6040     4.2190   -13.9080 hc         1 SQL       0.049950
     59 H29         -3.3600     3.7470   -16.3410 ha         1 SQL       0.124500
     60 H30         -6.4520     5.4610   -16.8050 hc         1 SQL       0.054200
     61 H31         -7.3170     3.1480   -16.9310 hc         1 SQL       0.040950
     62 H32         -5.8070     2.6250   -17.6900 hc         1 SQL       0.040950
     63 H33         -7.5310     4.8180   -19.0270 ha         1 SQL       0.223500
     64 H34         -8.2010     3.3860   -21.5270 hc         1 SQL       0.046533
     65 H35         -7.0280     4.7040   -21.3920 hc         1 SQL       0.046533
     66 H36         -6.5400     3.1540   -22.0900 hc         1 SQL       0.046533
     67 H37         -6.1270     1.2640   -20.7560 hc         1 SQL       0.046533
     68 H38         -5.0330     1.9740   -19.5600 hc         1 SQL       0.046533
     69 H39         -6.5540     1.2360   -19.0400 hc         1 SQL       0.046533
     70 H40         -5.6720     4.9650   -13.6330 hc         1 SQL       0.042367
     71 H41         -7.0910     4.6710   -14.6480 hc         1 SQL       0.042367
     72 H42         -6.2200     3.3090   -13.9300 hc         1 SQL       0.042367
     73 H43          1.5210    -0.7880    -3.0060 hc         1 SQL       0.040950
     74 H44          1.8770     2.2130    -2.6720 hc         1 SQL       0.054200
     75 H45         -0.0210     1.7940    -6.7040 hc         1 SQL       0.049950
     76 H46         -2.1040     1.1930    -5.5160 hc         1 SQL       0.055700
     77 H47         -1.4860     1.4580   -10.3240 hc         1 SQL       0.061700
     78 H48         -2.1120     1.9680   -14.8040 hc         1 SQL       0.055700
     79 H49         -4.1840     3.6510   -13.3500 hc         1 SQL       0.049950
     80 H50         -4.9420     4.9380   -17.5630 hc         1 SQL       0.054200
@<TRIPOS>BOND
     1     3     2 1
     2     1     2 1
     3     2     4 2
     4     4     5 1
     5     5     6 1
     6     6     7 1
     7     8     7 1
     8     7     9 2
     9     9    10 1
    10    10    11 1
    11    11    12 1
    12    13    12 1
    13    12    14 2
    14    14    15 1
    15    15    16 1
    16    16    17 1
    17    17    18 2
    18    18    19 1
    19    18    20 1
    20    20    21 1
    21    21    22 1
    22    22    23 2
    23    23    30 1
    24    23    24 1
    25    24    25 1
    26    25    26 1
    27    26    27 2
    28    27    29 1
    29    27    28 1
    30     1    31 1
    31     1    32 1
    32     1    33 1
    33     3    34 1
    34     3    35 1
    35     3    36 1
    36     4    37 1
    37     5    38 1
    38     6    39 1
    39     8    40 1
    40     8    41 1
    41     8    42 1
    42     9    43 1
    43    10    44 1
    44    11    45 1
    45    13    46 1
    46    13    47 1
    47    13    48 1
    48    14    49 1
    49    15    50 1
    50    15    51 1
    51    16    52 1
    52    17    53 1
    53    19    54 1
    54    19    55 1
    55    19    56 1
    56    20    57 1
    57    21    58 1
    58    22    59 1
    59    24    60 1
    60    25    61 1
    61    25    62 1
    62    26    63 1
    63    28    64 1
    64    28    65 1
    65    28    66 1
    66    29    67 1
    67    29    68 1
    68    29    69 1
    69    30    70 1
    70    30    71 1
    71    30    72 1
    72     5    73 1
    73     6    74 1
    74    10    75 1
    75    11    76 1
    76    16    77 1
    77    20    78 1
    78    21    79 1
    79    24    80 1
@<TRIPOS>SUBSTRUCTURE
     1 SQL         1 TEMP              0 ****  ****    0 ROOT
