@<TRIPOS>MOLECULE
SQO
   41    44     1     0     0
SMALL
bcc


@<TRIPOS>ATOM
      1 N1           0.0000     0.0000     0.0000 ns         1 SQO      -0.028400
      2 N3          -0.1260     0.0020     2.3370 nc         1 SQO      -0.525100
      3 C4           1.2270     0.0020     2.4710 ca         1 SQO       0.130400
      4 C5           2.0310     0.0000     1.3040 ca         1 SQO      -0.219600
      5 C6           1.3530     0.0000     0.0000 c          1 SQO       0.624100
      6 C7           3.4210     0.0010     1.4040 ca         1 SQO       0.009000
      7 C8           4.0120     0.0020     2.6510 ca         1 SQO      -0.298200
      8 C10          1.8290     0.0040     3.7220 ca         1 SQO      -0.054000
      9 N12          5.3310     0.0020     3.0810 na         1 SQO       0.214700
     10 C13          5.3100     0.0040     4.4460 cc         1 SQO       0.357700
     11 C2          -0.6930     0.0010     1.1710 cd         1 SQO       0.316800
     12 C9           3.2200     0.0040     3.8190 ca         1 SQO       0.142400
     13 N14          4.0720     0.0050     4.8760 nd         1 SQO      -0.612100
     14 N15          6.4250     0.0040     5.2530 nu         1 SQO      -0.465200
     15 O16          1.9850    -0.0020    -1.0410 o          1 SQO      -0.675500
     16 C25          7.7630     0.0020     4.6540 c3         1 SQO       0.139800
     17 C11          8.8180     0.0030     5.7630 c3         1 SQO       0.152800
     18 N6          10.1580     0.0010     5.1620 n3         1 SQO      -0.535600
     19 C12         11.1920     0.2400     6.1800 c3         1 SQO       0.105300
     20 C131        12.5740     0.1700     5.5230 c3         1 SQO       0.216400
     21 O2          12.6360     1.1190     4.4550 os         1 SQO      -0.409600
     22 C14         11.6440     0.9160     3.4460 c3         1 SQO       0.216400
     23 C15         10.2530     0.9930     4.0810 c3         1 SQO       0.105300
     24 HN1         -0.4960    -0.0010    -0.8690 hn         1 SQO       0.179500
     25 H7           4.0280     0.1330     0.5160 ha         1 SQO       0.119000
     26 H10          1.2240    -0.0940     4.6150 ha         1 SQO       0.128000
     27 HN12         6.1450     0.0010     2.5000 hn         1 SQO       0.132700
     28 H2          -1.7750     0.0010     1.1260 h5         1 SQO       0.000800
     29 HN15         6.3230    -0.0280     6.2480 hn         1 SQO       0.315800
     30 H25          7.8830    -0.8840     4.0420 h1         1 SQO       0.020700
     31 H25A         7.8840     0.8850     4.0390 h1         1 SQO       0.020700
     32 H9           8.6980     0.8880     6.3750 h1         1 SQO       0.017700
     33 H101         8.6970    -0.8810     6.3780 h1         1 SQO       0.017700
     34 H11         11.1210    -0.5180     6.9510 h1         1 SQO       0.019700
     35 H12         11.0490     1.2210     6.6160 h1         1 SQO       0.019700
     36 H13         13.3350     0.4040     6.2580 h1         1 SQO       0.014700
     37 H14         12.7370    -0.8260     5.1300 h1         1 SQO       0.014700
     38 H15         11.7380     1.6860     2.6890 h1         1 SQO       0.014700
     39 H16         11.7820    -0.0600     2.9960 h1         1 SQO       0.014700
     40 H17          9.5020     0.7810     3.3300 h1         1 SQO       0.019700
     41 H18         10.0970     1.9850     4.4870 h1         1 SQO       0.019700
@<TRIPOS>BOND
     1     1     5 1   
     2     1    11 1   
     3     1    24 1   
     4     2     3 1   
     5     2    11 2   
     6     3     4 ar  
     7     3     8 ar  
     8     4     5 1   
     9     4     6 ar  
    10     5    15 2   
    11     6     7 ar  
    12     6    25 1   
    13     7     9 1   
    14     7    12 ar  
    15     8    12 ar  
    16     8    26 1   
    17     9    10 1   
    18     9    27 1   
    19    10    13 2   
    20    10    14 1   
    21    11    28 1   
    22    12    13 1   
    23    14    16 1   
    24    14    29 1   
    25    16    17 1   
    26    16    30 1   
    27    16    31 1   
    28    17    18 1   
    29    17    32 1   
    30    17    33 1   
    31    18    19 1   
    32    18    23 1   
    33    19    20 1   
    34    19    34 1   
    35    19    35 1   
    36    20    21 1   
    37    20    36 1   
    38    20    37 1   
    39    21    22 1   
    40    22    23 1   
    41    22    38 1   
    42    22    39 1   
    43    23    40 1   
    44    23    41 1   
@<TRIPOS>SUBSTRUCTURE
     1 SQO         1 TEMP              0 ****  ****    0 ROOT
