@<TRIPOS>MOLECULE
molecule
   41    44     1     0     0
SMALL
bcc


@<TRIPOS>ATOM
      1 N1           0.0000     0.0000     0.0000 ns         1 SQO      -0.483400
      2 N3          -0.1260     0.0020     2.3370 nc         1 SQO      -0.635100
      3 C4           1.2270     0.0020     2.4710 ca         1 SQO       0.175400
      4 C5           2.0310     0.0000     1.3040 ca         1 SQO      -0.205600
      5 C6           1.3530     0.0000     0.0000 c          1 SQO       0.712100
      6 C7           3.4210     0.0010     1.4040 ca         1 SQO      -0.044000
      7 C8           4.0120     0.0020     2.6510 ca         1 SQO      -0.119200
      8 C10          1.8290     0.0040     3.7220 ca         1 SQO      -0.085000
      9 N12          5.3310     0.0020     3.0810 na         1 SQO      -0.299300
     10 C13          5.3100     0.0040     4.4460 cc         1 SQO       0.694700
     11 C2          -0.6930     0.0010     1.1710 cd         1 SQO       0.491800
     12 C9           3.2200     0.0040     3.8190 ca         1 SQO       0.167400
     13 N14          4.0720     0.0050     4.8760 nd         1 SQO      -0.678100
     14 N15          6.4250     0.0040     5.2530 nu         1 SQO      -0.876200
     15 O16          1.9850    -0.0020    -1.0410 o          1 SQO      -0.631500
     16 C25          7.7630     0.0020     4.6540 c3         1 SQO       0.223800
     17 C11          8.8180     0.0030     5.7630 c3         1 SQO       0.150800
     18 N6          10.1580     0.0010     5.1620 n3         1 SQO      -0.725600
     19 C12         11.1920     0.2400     6.1800 c3         1 SQO       0.119300
     20 C131        12.5740     0.1700     5.5230 c3         1 SQO       0.139900
     21 O2          12.6360     1.1190     4.4550 os         1 SQO      -0.421600
     22 C14         11.6440     0.9160     3.4460 c3         1 SQO       0.139900
     23 C15         10.2530     0.9930     4.0810 c3         1 SQO       0.119300
     24 HN1         -0.4960    -0.0010    -0.8690 hn         1 SQO       0.335500
     25 H7           4.0280     0.1330     0.5160 ha         1 SQO       0.150000
     26 H10          1.2240    -0.0940     4.6150 ha         1 SQO       0.162000
     27 HN12         6.1450     0.0010     2.5000 hn         1 SQO       0.303700
     28 H2          -1.7750     0.0010     1.1260 h5         1 SQO       0.052800
     29 HN15         6.3230    -0.0280     6.2480 hn         1 SQO       0.472800
     30 H25          7.8830    -0.8840     4.0420 h1         1 SQO       0.046700
     31 H25A         7.8840     0.8850     4.0390 h1         1 SQO       0.046700
     32 H9           8.6980     0.8880     6.3750 h1         1 SQO       0.047200
     33 H101         8.6970    -0.8810     6.3780 h1         1 SQO       0.047200
     34 H11         11.1210    -0.5180     6.9510 h1         1 SQO       0.044950
     35 H12         11.0490     1.2210     6.6160 h1         1 SQO       0.044950
     36 H13         13.3350     0.4040     6.2580 h1         1 SQO       0.056200
     37 H14         12.7370    -0.8260     5.1300 h1         1 SQO       0.056200
     38 H15         11.7380     1.6860     2.6890 h1         1 SQO       0.056200
     39 H16         11.7820    -0.0600     2.9960 h1         1 SQO       0.056200
     40 H17          9.5020     0.7810     3.3300 h1         1 SQO       0.044950
     41 H18         10.0970     1.9850     4.4870 h1         1 SQO       0.044950
@<TRIPOS>BOND
     1     1     5 1
     2     1    11 1
     3     2     3 1
     4     2    11 2
     5     3     4 ar
     6     3     8 ar
     7     4     5 1
     8     4     6 ar
     9     5    15 2
    10     6     7 ar
    11     7     9 1
    12     7    12 ar
    13     8    12 ar
    14     9    10 1
    15    10    13 2
    16    10    14 1
    17    12    13 1
    18    14    16 1
    19    16    17 1
    20    17    18 1
    21    18    19 1
    22    18    23 1
    23    19    20 1
    24    20    21 1
    25    21    22 1
    26    22    23 1
    27     1    24 1
    28     6    25 1
    29     8    26 1
    30     9    27 1
    31    11    28 1
    32    14    29 1
    33    16    30 1
    34    16    31 1
    35    17    32 1
    36    17    33 1
    37    19    34 1
    38    19    35 1
    39    20    36 1
    40    20    37 1
    41    22    38 1
    42    22    39 1
    43    23    40 1
    44    23    41 1
@<TRIPOS>SUBSTRUCTURE
     1 SQO         1 TEMP              0 ****  ****    0 ROOT
