@<TRIPOS>MOLECULE
SQS
   59    60     1     0     0
SMALL
bcc


@<TRIPOS>ATOM
      1 C4           0.0000     0.0000     0.0000 c2         1 SQS      -0.263000
      2 C5           1.3100     0.0000     0.0000 c2         1 SQS       0.003000
      3 C6           2.0630     0.0000     1.3060 DU         1 SQS      -0.018000
      4 C7           3.0350    -1.1810     1.3340 c3         1 SQS      -0.131000
      5 C8           3.7990    -1.1820     2.6590 c3         1 SQS      -0.110000
      6 C10          5.5350    -2.3620     4.0130 c3         1 SQS      -0.107000
      7 C13          8.2430    -4.7250     5.3950 c3         1 SQS      -0.107000
      8 C15          9.9790    -5.9070     6.7490 c3         1 SQS      -0.108000
      9 C17         11.7150    -7.0890     8.1020 c3         1 SQS      -0.107000
     10 O3           0.1720    -0.1290    -2.3890 oh         1 SQS      -0.280000
     11 C3          -0.7530    -0.0060    -1.3060 DU         1 SQS       0.225000
     12 C2          -1.7240    -1.1880    -1.3290 c3         1 SQS      -0.341000
     13 N2          -2.6750    -1.0620    -0.2150 nz         1 SQS       0.866000
     14 C1          -2.4890    -1.1950    -2.6540 c3         1 SQS       0.064000
     15 O1          -3.3100    -2.3610    -2.7250 oh         1 SQS      -0.339000
     16 C9           4.7710    -2.3630     2.6870 c3         1 SQS      -0.106000
     17 C11          6.5060    -3.5440     4.0410 c3         1 SQS      -0.107000
     18 C12          7.2710    -3.5440     5.3660 c3         1 SQS      -0.107000
     19 C14          9.0070    -4.7260     6.7210 c3         1 SQS      -0.108000
     20 C16         10.7430    -5.9070     8.0740 c3         1 SQS      -0.108000
     21 C18         12.4790    -7.0890     9.4280 c3         1 SQS      -0.112000
     22 H1          -0.1490     0.8740    -0.6220 DU         1 SQS      -0.021000
     23 H2           1.4590     0.8770     0.6180 DU         1 SQS       0.078000
     24 H3           1.3610    -0.0890     2.1270 ha         1 SQS       0.077000
     25 H4           2.6170     0.9260     1.4030 ha         1 SQS       0.077000
     26 H5           3.7360    -1.0920     0.5130 hc         1 SQS       0.067000
     27 H6           2.4810    -2.1070     1.2370 hc         1 SQS       0.067000
     28 H7           3.0990    -1.2710     3.4810 hc         1 SQS       0.056000
     29 H8           4.3540    -0.2560     2.7570 hc         1 SQS       0.056000
     30 H9           6.0900    -1.4370     4.1100 hc         1 SQS       0.055500
     31 H10          4.8340    -2.4510     4.8350 hc         1 SQS       0.055500
     32 H11          8.9450    -4.6360     4.5740 hc         1 SQS       0.054500
     33 H12          7.6890    -5.6510     5.2970 hc         1 SQS       0.054500
     34 H13         10.6790    -5.8170     5.9280 hc         1 SQS       0.054500
     35 H14          9.4240    -6.8320     6.6510 hc         1 SQS       0.054500
     36 H15         12.4170    -6.9990     7.2820 hc         1 SQS       0.051500
     37 H16         11.1620    -8.0140     8.0050 hc         1 SQS       0.051500
     38 H17          0.2620     0.7040    -2.8210 ho         1 SQS       0.220000
     39 H18         -1.3070     0.9190    -1.4080 ha         1 SQS       0.035000
     40 H19         -1.1690    -2.1130    -1.2270 hx         1 SQS       0.160000
     41 H20         -3.4190    -1.7200    -0.3360 hn         1 SQS       0.021000
     42 H21         -3.0490    -0.1340    -0.1990 hn         1 SQS       0.021000
     43 H23         -3.1110    -0.3110    -2.7160 h1         1 SQS       0.063500
     44 H24         -1.7840    -1.1990    -3.4770 h1         1 SQS       0.063500
     45 H25         -3.6640    -2.4440    -3.5950 ho         1 SQS       0.240000
     46 H26          4.2170    -3.2890     2.5900 hc         1 SQS       0.056500
     47 H27          5.4720    -2.2740     1.8660 hc         1 SQS       0.056500
     48 H28          5.9510    -4.4700     3.9450 hc         1 SQS       0.055000
     49 H29          7.2070    -3.4560     3.2200 hc         1 SQS       0.055000
     50 H30          7.8250    -2.6180     5.4630 hc         1 SQS       0.054500
     51 H31          6.5700    -3.6330     6.1880 hc         1 SQS       0.054500
     52 H32          9.5610    -3.8000     6.8180 hc         1 SQS       0.054500
     53 H33          8.3060    -4.8150     7.5420 hc         1 SQS       0.054500
     54 H34         11.2970    -4.9810     8.1710 hc         1 SQS       0.054500
     55 H35         10.0420    -5.9970     8.8950 hc         1 SQS       0.054500
     56 H36         13.0610    -7.9990     9.5090 hc         1 SQS       0.040667
     57 H37         11.7760    -7.0350    10.2500 hc         1 SQS       0.040667
     58 H38         13.1420    -6.2330     9.4630 hc         1 SQS       0.040667
     59 H231        -2.2040    -1.2480     0.6480 hn         1 SQS       0.021000
@<TRIPOS>BOND
     1     1     2 1   
     2     1    11 1   
     3     1    22 1   
     4     2     3 1   
     5     2    23 1   
     6     3     4 1   
     7     3    23 1   
     8     3    24 1   
     9     3    25 1   
    10     4     5 1   
    11     4    26 1   
    12     4    27 1   
    13     5    16 1   
    14     5    28 1   
    15     5    29 1   
    16     6    16 1   
    17     6    17 1   
    18     6    30 1   
    19     6    31 1   
    20     7    18 1   
    21     7    19 1   
    22     7    32 1   
    23     7    33 1   
    24     8    19 1   
    25     8    20 1   
    26     8    34 1   
    27     8    35 1   
    28     9    20 1   
    29     9    21 1   
    30     9    36 1   
    31     9    37 1   
    32    10    11 1   
    33    10    38 1   
    34    11    12 1   
    35    11    22 1   
    36    11    39 1   
    37    12    13 1   
    38    12    14 1   
    39    12    40 1   
    40    13    41 1   
    41    13    42 1   
    42    13    59 1   
    43    14    15 1   
    44    14    43 1   
    45    14    44 1   
    46    15    45 1   
    47    16    46 1   
    48    16    47 1   
    49    17    18 1   
    50    17    48 1   
    51    17    49 1   
    52    18    50 1   
    53    18    51 1   
    54    19    52 1   
    55    19    53 1   
    56    20    54 1   
    57    20    55 1   
    58    21    56 1   
    59    21    57 1   
    60    21    58 1   
@<TRIPOS>SUBSTRUCTURE
     1 SQS         1 TEMP              0 ****  ****    0 ROOT
