@<TRIPOS>MOLECULE
molecule
   59    58     1     0     0
SMALL
bcc


@<TRIPOS>ATOM
      1 C4           0.0000     0.0000     0.0000 c2         1 SQS      -0.323200
      2 C5           1.3100     0.0000     0.0000 c2         1 SQS      -0.044200
      3 C6           2.0630     0.0000     1.3060 c3         1 SQS      -0.067200
      4 C7           3.0350    -1.1810     1.3340 c3         1 SQS      -0.077400
      5 C8           3.7990    -1.1820     2.6590 c3         1 SQS      -0.082400
      6 C10          5.5350    -2.3620     4.0130 c3         1 SQS      -0.081400
      7 C13          8.2430    -4.7250     5.3950 c3         1 SQS      -0.081400
      8 C15          9.9790    -5.9070     6.7490 c3         1 SQS      -0.082400
      9 C17         11.7150    -7.0890     8.1020 c3         1 SQS      -0.084400
     10 O3           0.1720    -0.1290    -2.3890 oh         1 SQS      -0.577800
     11 C3          -0.7530    -0.0060    -1.3060 c3         1 SQS       0.182300
     12 C2          -1.7240    -1.1880    -1.3290 c3         1 SQS       0.102500
     13 N2          -2.6750    -1.0620    -0.2150 nz         1 SQS      -0.803600
     14 C1          -2.4890    -1.1950    -2.6540 c3         1 SQS       0.114400
     15 O1          -3.3100    -2.3610    -2.7250 oh         1 SQS      -0.627800
     16 C9           4.7710    -2.3630     2.6870 c3         1 SQS      -0.081400
     17 C11          6.5060    -3.5440     4.0410 c3         1 SQS      -0.081400
     18 C12          7.2710    -3.5440     5.3660 c3         1 SQS      -0.081400
     19 C14          9.0070    -4.7260     6.7210 c3         1 SQS      -0.082400
     20 C16         10.7430    -5.9070     8.0740 c3         1 SQS      -0.081400
     21 C18         12.4790    -7.0890     9.4280 c3         1 SQS      -0.092100
     22 H1          -0.5420     0.0000     0.9380 ha         1 SQS       0.118000
     23 H2           1.8520    -0.0050    -0.9380 ha         1 SQS       0.156000
     24 H3           2.6160     0.9260     1.4030 hc         1 SQS       0.061200
     25 H4           1.3610    -0.0890     2.1270 hc         1 SQS       0.061200
     26 H5           3.7360    -1.0920     0.5130 hc         1 SQS       0.047200
     27 H6           2.4810    -2.1070     1.2370 hc         1 SQS       0.047200
     28 H7           3.0990    -1.2710     3.4810 hc         1 SQS       0.045700
     29 H8           4.3540    -0.2560     2.7570 hc         1 SQS       0.045700
     30 H9           4.8340    -2.4510     4.8350 hc         1 SQS       0.043200
     31 H10          6.0900    -1.4370     4.1100 hc         1 SQS       0.043200
     32 H11          8.9450    -4.6360     4.5740 hc         1 SQS       0.041700
     33 H12          7.6890    -5.6510     5.2970 hc         1 SQS       0.041700
     34 H13          9.4240    -6.8320     6.6510 hc         1 SQS       0.041200
     35 H14         10.6790    -5.8170     5.9280 hc         1 SQS       0.041200
     36 H15         11.1620    -8.0140     8.0050 hc         1 SQS       0.040200
     37 H16         12.4170    -6.9990     7.2820 hc         1 SQS       0.040200
     38 H17          0.2820     0.7100    -2.8050 ho         1 SQS       0.436000
     39 H18         -1.3070     0.9190    -1.4080 h1         1 SQS       0.048700
     40 H19         -1.1690    -2.1130    -1.2270 hx         1 SQS       0.142700
     41 H20         -3.5250    -1.5370    -0.4470 hn         1 SQS       0.459467
     42 H21         -2.2800    -1.4700     0.6090 hn         1 SQS       0.459467
     43 H23         -3.1110    -0.3110    -2.7160 h1         1 SQS       0.069700
     44 H24         -1.7840    -1.1990    -3.4770 h1         1 SQS       0.069700
     45 H25         -3.5900    -2.4950    -3.6150 ho         1 SQS       0.452000
     46 H26          4.2170    -3.2890     2.5900 hc         1 SQS       0.043200
     47 H27          5.4720    -2.2740     1.8660 hc         1 SQS       0.043200
     48 H28          5.9510    -4.4700     3.9450 hc         1 SQS       0.042200
     49 H29          7.2070    -3.4560     3.2200 hc         1 SQS       0.042200
     50 H30          7.8250    -2.6180     5.4630 hc         1 SQS       0.042200
     51 H31          6.5700    -3.6330     6.1880 hc         1 SQS       0.042200
     52 H32          9.5610    -3.8000     6.8180 hc         1 SQS       0.041700
     53 H33          8.3060    -4.8150     7.5420 hc         1 SQS       0.041700
     54 H34         10.0420    -5.9970     8.8950 hc         1 SQS       0.041700
     55 H35         11.2970    -4.9810     8.1710 hc         1 SQS       0.041700
     56 H36         13.2360    -7.8640     9.4090 hc         1 SQS       0.033700
     57 H37         12.9530    -6.1250     9.5720 hc         1 SQS       0.033700
     58 H38         11.7900    -7.2780    10.2420 hc         1 SQS       0.033700
     59 H231        -2.8720    -0.0950    -0.0530 hn         1 SQS       0.459467
@<TRIPOS>BOND
     1    15    14 1
     2    14    12 1
     3    13    12 1
     4    12    11 1
     5    10    11 1
     6    11     1 1
     7     1     2 2
     8     2     3 1
     9     3     4 1
    10     4     5 1
    11     5    16 1
    12    16     6 1
    13     6    17 1
    14    17    18 1
    15    18     7 1
    16    21     9 1
    17     7    19 1
    18     9    20 1
    19    20     8 1
    20    19     8 1
    21     1    22 1
    22     2    23 1
    23     3    24 1
    24     3    25 1
    25     4    26 1
    26     4    27 1
    27     5    28 1
    28     5    29 1
    29     6    30 1
    30     6    31 1
    31     7    32 1
    32     7    33 1
    33     8    34 1
    34     8    35 1
    35     9    36 1
    36     9    37 1
    37    10    38 1
    38    11    39 1
    39    12    40 1
    40    13    41 1
    41    13    42 1
    42    14    43 1
    43    14    44 1
    44    15    45 1
    45    16    46 1
    46    16    47 1
    47    17    48 1
    48    17    49 1
    49    18    50 1
    50    18    51 1
    51    19    52 1
    52    19    53 1
    53    20    54 1
    54    20    55 1
    55    21    56 1
    56    21    57 1
    57    21    58 1
    58    59    13 1
@<TRIPOS>SUBSTRUCTURE
     1 SQS         1 TEMP              0 ****  ****    0 ROOT
