@<TRIPOS>MOLECULE
SQU
   83    82     1     0     0
SMALL
bcc


@<TRIPOS>ATOM
      1 C1          0.0880   -0.6750    0.6650 c3        1 SQU     -0.089600
      2 C2          1.5960   -0.7160    0.8090 c3        1 SQU     -0.067700
      3 C3          1.9740   -0.9760    2.2520 c3        1 SQU     -0.089600
      4 C4          2.1810   -1.7710   -0.1180 c3        1 SQU     -0.075400
      5 C5          3.6670   -1.5840   -0.3390 c3        1 SQU     -0.079400
      6 C6          4.2140   -2.6280   -1.2890 c3        1 SQU     -0.079400
      7 C7          5.7000   -2.4460   -1.5090 c3        1 SQU     -0.078400
      8 C9          6.2470   -3.4890   -2.4600 c3        1 SQU     -0.079400
      9 C10         7.7350   -3.3090   -2.6760 c3        1 SQU     -0.079400
     10 C11         8.2750   -4.3460   -3.6390 c3        1 SQU     -0.076400
     11 C12         9.7840   -4.2440   -3.8160 c3        1 SQU     -0.064700
     12 C13        10.1520   -3.0180   -4.6250 c3        1 SQU     -0.089100
     13 C14        10.3120   -5.5110   -4.4790 c3        1 SQU     -0.076400
     14 C15        11.8110   -5.6580   -4.3300 c3        1 SQU     -0.079400
     15 C16        12.2950   -6.9540   -4.9460 c3        1 SQU     -0.079400
     16 C17        13.7950   -7.1020   -4.8050 c3        1 SQU     -0.079400
     17 C18        14.2790   -8.3970   -5.4210 c3        1 SQU     -0.079400
     18 C20        15.7790   -8.5470   -5.2780 c3        1 SQU     -0.079400
     19 C21        16.2640   -9.8410   -5.8960 c3        1 SQU     -0.079400
     20 C22        17.7630   -9.9910   -5.7510 c3        1 SQU     -0.079400
     21 C23        18.2480  -11.2840   -6.3710 c3        1 SQU     -0.079400
     22 C25        19.7470  -11.4350   -6.2240 c3        1 SQU     -0.079400
     23 C26        20.2320  -12.7270   -6.8480 c3        1 SQU     -0.079400
     24 C27        21.7310  -12.8770   -6.6960 c3        1 SQU     -0.075400
     25 C28        22.2540  -14.1530   -7.3400 c3        1 SQU     -0.067700
     26 C29        23.7520  -14.0570   -7.5440 c3        1 SQU     -0.089600
     27 C30        21.9180  -15.3710   -6.5060 c3        1 SQU     -0.089600
     28 H11        -0.3560   -1.6680    0.9150 hc        1 SQU      0.033033
     29 H12A       -0.3460    0.0900    1.3530 hc        1 SQU      0.033033
     30 H13        -0.1980   -0.4130   -0.3820 hc        1 SQU      0.033033
     31 H2          2.0080    0.2900    0.5090 hc        1 SQU      0.045700
     32 H31         1.5840   -1.9670    2.5880 hc        1 SQU      0.033033
     33 H32         3.0840   -0.9720    2.3750 hc        1 SQU      0.033033
     34 H33         1.5430   -0.1850    2.9130 hc        1 SQU      0.033033
     35 H41         1.9890   -2.7910    0.3090 hc        1 SQU      0.039700
     36 H42         1.6550   -1.7220   -1.1090 hc        1 SQU      0.039700
     37 H51         4.2090   -1.6490    0.6410 hc        1 SQU      0.039700
     38 H52         3.8600   -0.5600   -0.7560 hc        1 SQU      0.039700
     39 H61         4.0180   -3.6530   -0.8750 hc        1 SQU      0.039700
     40 H62         3.6780   -2.5610   -2.2720 hc        1 SQU      0.039700
     41 H71         6.2370   -2.5160   -0.5260 hc        1 SQU      0.039700
     42 H72         5.8970   -1.4210   -1.9210 hc        1 SQU      0.039700
     43 H91         5.7130   -3.4170   -3.4440 hc        1 SQU      0.039700
     44 H92         6.0470   -4.5140   -2.0500 hc        1 SQU      0.039700
     45 H101        8.2690   -3.3930   -1.6930 hc        1 SQU      0.040200
     46 H102        7.9320   -2.2790   -3.0740 hc        1 SQU      0.040200
     47 H111        8.0160   -5.3680   -3.2520 hc        1 SQU      0.039700
     48 H112        7.7740   -4.2320   -4.6360 hc        1 SQU      0.039700
     49 H12        10.2560   -4.1540   -2.7960 hc        1 SQU      0.047700
     50 H131        9.7920   -2.0910   -4.1170 hc        1 SQU      0.033700
     51 H132       11.2610   -2.9440   -4.7410 hc        1 SQU      0.033700
     52 H133        9.6930   -3.0650   -5.6420 hc        1 SQU      0.033700
     53 H141       10.0390   -5.5030   -5.5660 hc        1 SQU      0.039700
     54 H142        9.8140   -6.4050   -4.0180 hc        1 SQU      0.039700
     55 H151       12.3310   -4.7940   -4.8230 hc        1 SQU      0.040200
     56 H152       12.0870   -5.6330   -3.2430 hc        1 SQU      0.040200
     57 H161       12.0150   -6.9810   -6.0320 hc        1 SQU      0.039700
     58 H162       11.7840   -7.8200   -4.4510 hc        1 SQU      0.039700
     59 H171       14.0750   -7.0740   -3.7190 hc        1 SQU      0.039700
     60 H172       14.3070   -6.2360   -5.3010 hc        1 SQU      0.039700
     61 H181       14.0010   -8.4250   -6.5070 hc        1 SQU      0.039700
     62 H182       13.7660   -9.2640   -4.9260 hc        1 SQU      0.039700
     63 H201       16.2920   -7.6790   -5.7700 hc        1 SQU      0.039700
     64 H202       16.0570   -8.5220   -4.1910 hc        1 SQU      0.039700
     65 H211       15.9870   -9.8650   -6.9830 hc        1 SQU      0.039700
     66 H212       15.7490  -10.7080   -5.4050 hc        1 SQU      0.039700
     67 H221       18.0390   -9.9690   -4.6630 hc        1 SQU      0.039700
     68 H222       18.2770   -9.1230   -6.2400 hc        1 SQU      0.039700
     69 H231       17.7330  -12.1520   -5.8830 hc        1 SQU      0.039700
     70 H232       17.9730  -11.3050   -7.4590 hc        1 SQU      0.039700
     71 H251       20.0220  -11.4150   -5.1370 hc        1 SQU      0.039700
     72 H252       20.2620  -10.5650   -6.7110 hc        1 SQU      0.039700
     73 H261       19.9590  -12.7440   -7.9360 hc        1 SQU      0.039700
     74 H262       19.7120  -13.5940   -6.3630 hc        1 SQU      0.039700
     75 H271       22.2360  -11.9930   -7.1690 hc        1 SQU      0.039700
     76 H272       22.0030  -12.8700   -5.6080 hc        1 SQU      0.039700
     77 H28        21.7650  -14.2670   -8.3500 hc        1 SQU      0.045700
     78 H291       24.0020  -13.2020   -8.2180 hc        1 SQU      0.033033
     79 H292       24.2700  -13.9010   -6.5680 hc        1 SQU      0.033033
     80 H293       24.1410  -14.9970   -8.0050 hc        1 SQU      0.033033
     81 H301       22.3840  -15.2950   -5.4940 hc        1 SQU      0.033033
     82 H302       22.3020  -16.2960   -7.0020 hc        1 SQU      0.033033
     83 H303       20.8140  -15.4700   -6.3810 hc        1 SQU      0.033033
@<TRIPOS>BOND
     1    1    2 1   
     2    1   28 1   
     3    1   29 1   
     4    1   30 1   
     5    2    3 1   
     6    2    4 1   
     7    2   31 1   
     8    3   32 1   
     9    3   33 1   
    10    3   34 1   
    11    4    5 1   
    12    4   35 1   
    13    4   36 1   
    14    5    6 1   
    15    5   37 1   
    16    5   38 1   
    17    6    7 1   
    18    6   39 1   
    19    6   40 1   
    20    7    8 1   
    21    7   41 1   
    22    7   42 1   
    23    8    9 1   
    24    8   43 1   
    25    8   44 1   
    26    9   10 1   
    27    9   45 1   
    28    9   46 1   
    29   10   11 1   
    30   10   47 1   
    31   10   48 1   
    32   11   12 1   
    33   11   13 1   
    34   11   49 1   
    35   12   50 1   
    36   12   51 1   
    37   12   52 1   
    38   13   14 1   
    39   13   53 1   
    40   13   54 1   
    41   14   15 1   
    42   14   55 1   
    43   14   56 1   
    44   15   16 1   
    45   15   57 1   
    46   15   58 1   
    47   16   17 1   
    48   16   59 1   
    49   16   60 1   
    50   17   18 1   
    51   17   61 1   
    52   17   62 1   
    53   18   19 1   
    54   18   63 1   
    55   18   64 1   
    56   19   20 1   
    57   19   65 1   
    58   19   66 1   
    59   20   21 1   
    60   20   67 1   
    61   20   68 1   
    62   21   22 1   
    63   21   69 1   
    64   21   70 1   
    65   22   23 1   
    66   22   71 1   
    67   22   72 1   
    68   23   24 1   
    69   23   73 1   
    70   23   74 1   
    71   24   25 1   
    72   24   75 1   
    73   24   76 1   
    74   25   26 1   
    75   25   27 1   
    76   25   77 1   
    77   26   78 1   
    78   26   79 1   
    79   26   80 1   
    80   27   81 1   
    81   27   82 1   
    82   27   83 1   
@<TRIPOS>SUBSTRUCTURE
     1 SQU         1 TEMP              0 ****  ****    0 ROOT
