@<TRIPOS>MOLECULE
molecule
   83    82     1     0     0
SMALL
bcc


@<TRIPOS>ATOM
      1 C1           0.0000     0.0000     0.0000 c3         1 SQU      -0.087600
      2 C2           1.5300     0.0000     0.0000 c3         1 SQU      -0.077700
      3 C3           2.0380     0.0000     1.4430 c3         1 SQU      -0.087600
      4 C4           2.0420    -1.2490    -0.7190 c3         1 SQU      -0.076400
      5 C5           3.5710    -1.2490    -0.7190 c3         1 SQU      -0.083400
      6 C6           4.0830    -2.4980    -1.4380 c3         1 SQU      -0.082400
      7 C7           5.6120    -2.4970    -1.4380 c3         1 SQU      -0.081400
      8 C9           6.1230    -3.7460    -2.1580 c3         1 SQU      -0.082400
      9 C10          7.6530    -3.7460    -2.1580 c3         1 SQU      -0.084400
     10 C11          8.1640    -4.9950    -2.8780 c3         1 SQU      -0.076400
     11 C12          9.6940    -4.9950    -2.8780 c3         1 SQU      -0.074700
     12 C13         10.2040    -3.7460    -3.5970 c3         1 SQU      -0.094100
     13 C14         10.2050    -6.2430    -3.5970 c3         1 SQU      -0.076400
     14 C15         11.7350    -6.2430    -3.5970 c3         1 SQU      -0.084400
     15 C16         12.2460    -7.4920    -4.3170 c3         1 SQU      -0.082400
     16 C17         13.7750    -7.4910    -4.3150 c3         1 SQU      -0.081400
     17 C18         14.2870    -8.7400    -5.0360 c3         1 SQU      -0.082400
     18 C20         15.8160    -8.7400    -5.0350 c3         1 SQU      -0.082400
     19 C21         16.3280    -9.9890    -5.7550 c3         1 SQU      -0.082400
     20 C22         17.8580    -9.9890    -5.7550 c3         1 SQU      -0.081400
     21 C23         18.3690   -11.2370    -6.4740 c3         1 SQU      -0.081400
     22 C25         19.8980   -11.2370    -6.4740 c3         1 SQU      -0.082400
     23 C26         20.4100   -12.4860    -7.1940 c3         1 SQU      -0.083400
     24 C27         21.9390   -12.4860    -7.1930 c3         1 SQU      -0.076400
     25 C28         22.4510   -13.7340    -7.9130 c3         1 SQU      -0.077700
     26 C29         23.9800   -13.7350    -7.9130 c3         1 SQU      -0.087600
     27 C30         21.9400   -14.9840    -7.1930 c3         1 SQU      -0.087600
     28 H11         -0.3610    -0.8580     0.5550 hc         1 SQU       0.033033
     29 H12A        -0.3610    -0.0510    -1.0200 hc         1 SQU       0.033033
     30 H13         -0.3610     0.9090     0.4650 hc         1 SQU       0.033033
     31 H2           1.8910     0.8850    -0.5100 hc         1 SQU       0.048700
     32 H31          3.0250     0.4460     1.4780 hc         1 SQU       0.033033
     33 H32          2.0900    -1.0190     1.8080 hc         1 SQU       0.033033
     34 H33          1.3600     0.5720     2.0650 hc         1 SQU       0.033033
     35 H41          1.6810    -1.2510    -1.7410 hc         1 SQU       0.041200
     36 H42          1.6810    -2.1330    -0.2080 hc         1 SQU       0.041200
     37 H51          3.9310    -1.2470     0.3020 hc         1 SQU       0.042200
     38 H52          3.9310    -0.3640    -1.2300 hc         1 SQU       0.042200
     39 H61          3.7220    -2.4990    -2.4600 hc         1 SQU       0.040700
     40 H62          3.7220    -3.3820    -0.9270 hc         1 SQU       0.040700
     41 H71          5.9720    -1.6130    -1.9490 hc         1 SQU       0.040700
     42 H72          5.9720    -2.4960    -0.4170 hc         1 SQU       0.040700
     43 H91          5.7620    -4.6310    -1.6480 hc         1 SQU       0.040700
     44 H92          5.7630    -3.7470    -3.1800 hc         1 SQU       0.040700
     45 H101         8.0150    -2.8620    -2.6680 hc         1 SQU       0.042700
     46 H102         8.0140    -3.7460    -1.1360 hc         1 SQU       0.042700
     47 H111         7.8030    -5.8790    -2.3670 hc         1 SQU       0.041200
     48 H112         7.8030    -4.9950    -3.8990 hc         1 SQU       0.041200
     49 H12         10.0540    -4.9940    -1.8560 hc         1 SQU       0.049700
     50 H131        10.8340    -4.0400    -4.4280 hc         1 SQU       0.035700
     51 H132         9.3630    -3.1730    -3.9670 hc         1 SQU       0.035700
     52 H133        10.7780    -3.1400    -2.9060 hc         1 SQU       0.035700
     53 H141         9.8440    -6.2450    -4.6180 hc         1 SQU       0.041200
     54 H142         9.8440    -7.1270    -3.0850 hc         1 SQU       0.041200
     55 H151        12.0960    -5.3590    -4.1070 hc         1 SQU       0.043200
     56 H152        12.0960    -6.2430    -2.5750 hc         1 SQU       0.043200
     57 H161        11.8850    -8.3760    -3.8060 hc         1 SQU       0.040700
     58 H162        11.8860    -7.4920    -5.3380 hc         1 SQU       0.040700
     59 H171        14.1350    -7.4910    -3.2940 hc         1 SQU       0.040700
     60 H172        14.1360    -6.6070    -4.8260 hc         1 SQU       0.040700
     61 H181        13.9260    -9.6250    -4.5250 hc         1 SQU       0.040700
     62 H182        13.9260    -8.7410    -6.0570 hc         1 SQU       0.040700
     63 H201        16.1770    -7.8550    -5.5470 hc         1 SQU       0.040700
     64 H202        16.1770    -8.7380    -4.0140 hc         1 SQU       0.040700
     65 H211        15.9670   -10.8730    -5.2430 hc         1 SQU       0.040700
     66 H212        15.9670    -9.9900    -6.7760 hc         1 SQU       0.040700
     67 H221        18.2180    -9.9870    -4.7330 hc         1 SQU       0.040700
     68 H222        18.2180    -9.1050    -6.2660 hc         1 SQU       0.040700
     69 H231        18.0080   -12.1220    -5.9620 hc         1 SQU       0.040700
     70 H232        18.0080   -11.2390    -7.4950 hc         1 SQU       0.040700
     71 H251        20.2590   -11.2370    -5.4520 hc         1 SQU       0.040700
     72 H252        20.2590   -10.3530    -6.9850 hc         1 SQU       0.040700
     73 H261        20.0480   -13.3700    -6.6830 hc         1 SQU       0.042200
     74 H262        20.0490   -12.4860    -8.2150 hc         1 SQU       0.042200
     75 H271        22.3000   -12.4860    -6.1710 hc         1 SQU       0.041200
     76 H272        22.3010   -11.6020    -7.7030 hc         1 SQU       0.041200
     77 H28         22.0900   -13.7340    -8.9350 hc         1 SQU       0.048700
     78 H291        24.3410   -12.8260    -8.3780 hc         1 SQU       0.033033
     79 H292        24.3400   -14.5930    -8.4680 hc         1 SQU       0.033033
     80 H293        24.3410   -13.7870    -6.8930 hc         1 SQU       0.033033
     81 H301        22.6200   -15.8080    -7.3730 hc         1 SQU       0.033033
     82 H302        21.8810   -14.7900    -6.1290 hc         1 SQU       0.033033
     83 H303        20.9560   -15.2400    -7.5680 hc         1 SQU       0.033033
@<TRIPOS>BOND
     1     1     2 1
     2     1    28 1
     3     1    29 1
     4     1    30 1
     5     2     3 1
     6     2     4 1
     7     2    31 1
     8     3    32 1
     9     3    33 1
    10     3    34 1
    11     4     5 1
    12     4    35 1
    13     4    36 1
    14     5     6 1
    15     5    37 1
    16     5    38 1
    17     6     7 1
    18     6    39 1
    19     6    40 1
    20     7     8 1
    21     7    41 1
    22     7    42 1
    23     8     9 1
    24     8    43 1
    25     8    44 1
    26     9    10 1
    27     9    45 1
    28     9    46 1
    29    10    11 1
    30    10    47 1
    31    10    48 1
    32    11    12 1
    33    11    13 1
    34    11    49 1
    35    12    50 1
    36    12    51 1
    37    12    52 1
    38    13    14 1
    39    13    53 1
    40    13    54 1
    41    14    15 1
    42    14    55 1
    43    14    56 1
    44    15    16 1
    45    15    57 1
    46    15    58 1
    47    16    17 1
    48    16    59 1
    49    16    60 1
    50    17    18 1
    51    17    61 1
    52    17    62 1
    53    18    19 1
    54    18    63 1
    55    18    64 1
    56    19    20 1
    57    19    65 1
    58    19    66 1
    59    20    21 1
    60    20    67 1
    61    20    68 1
    62    21    22 1
    63    21    69 1
    64    21    70 1
    65    22    23 1
    66    22    71 1
    67    22    72 1
    68    23    24 1
    69    23    73 1
    70    23    74 1
    71    24    25 1
    72    24    75 1
    73    24    76 1
    74    25    26 1
    75    25    27 1
    76    25    77 1
    77    26    78 1
    78    26    79 1
    79    26    80 1
    80    27    81 1
    81    27    82 1
    82    27    83 1
@<TRIPOS>SUBSTRUCTURE
     1 SQU         1 TEMP              0 ****  ****    0 ROOT
