@<TRIPOS>MOLECULE
molecule
   32    31     1     0     0
SMALL
bcc


@<TRIPOS>ATOM
      1 N1           0.0000     0.0000     0.0000 nz         1 SR0      -0.808600
      2 C2           1.4690     0.0000     0.0000 c3         1 SR0       0.102800
      3 C3           1.9790     0.0000     1.4430 c3         1 SR0      -0.107400
      4 C4           3.5090    -0.0000     1.4430 c3         1 SR0      -0.105400
      5 C5           4.0190     0.0000     2.8860 c3         1 SR0       0.098800
      6 N6           5.4870    -0.0000     2.8860 ny         1 SR0      -0.734000
      7 C7           5.9770     0.0000     4.2710 c3         1 SR0       0.108800
      8 C8           7.5070    -0.0000     4.2710 c3         1 SR0      -0.148400
      9 C9           8.0170     0.0000     5.7140 c3         1 SR0       0.110800
     10 N10          9.4850    -0.0000     5.7140 nz         1 SR0      -0.807600
     11 H1          -0.3340     0.8170     0.4720 hn         1 SR0       0.472467
     12 H2          -0.3340     0.0000    -0.9440 hn         1 SR0       0.472467
     13 H3          -0.3340    -0.8170     0.4720 hn         1 SR0       0.472467
     14 H4           1.8300    -0.8850    -0.5110 hx         1 SR0       0.122700
     15 H5           1.8300     0.8850    -0.5110 hx         1 SR0       0.122700
     16 H6           1.6180     0.8840     1.9530 hc         1 SR0       0.082700
     17 H7           1.6180    -0.8840     1.9530 hc         1 SR0       0.082700
     18 H8           3.8700    -0.8840     0.9320 hc         1 SR0       0.083700
     19 H9           3.8700     0.8840     0.9320 hc         1 SR0       0.083700
     20 H10          3.6580     0.8850     3.3960 hx         1 SR0       0.121700
     21 H11          3.6580    -0.8850     3.3960 hx         1 SR0       0.121700
     22 H12          5.8210    -0.8170     2.4140 hn         1 SR0       0.462800
     23 H13          5.8210     0.8170     2.4140 hn         1 SR0       0.462800
     24 H14          5.6160     0.8850     4.7820 hx         1 SR0       0.126700
     25 H15          5.6160    -0.8850     4.7820 hx         1 SR0       0.126700
     26 H16          7.8680    -0.8840     3.7610 hc         1 SR0       0.089700
     27 H17          7.8680     0.8840     3.7610 hc         1 SR0       0.089700
     28 H18          7.6560     0.8850     6.2250 hx         1 SR0       0.129700
     29 H19          7.6560    -0.8850     6.2250 hx         1 SR0       0.129700
     30 H20          9.8190    -0.0000     6.6580 hn         1 SR0       0.477133
     31 H21          9.8190    -0.8170     5.2420 hn         1 SR0       0.477133
     32 H22          9.8190     0.8170     5.2420 hn         1 SR0       0.477133
@<TRIPOS>BOND
     1     1     2 1
     2     2     3 1
     3     3     4 1
     4     4     5 1
     5     5     6 1
     6     6     7 1
     7     7     8 1
     8     9     8 1
     9     9    10 1
    10     1    11 1
    11     1    12 1
    12     1    13 1
    13     2    14 1
    14     2    15 1
    15     3    16 1
    16     3    17 1
    17     4    18 1
    18     4    19 1
    19     5    20 1
    20     5    21 1
    21     6    22 1
    22     6    23 1
    23     7    24 1
    24     7    25 1
    25     8    26 1
    26     8    27 1
    27     9    28 1
    28     9    29 1
    29    10    30 1
    30    10    31 1
    31    10    32 1
@<TRIPOS>SUBSTRUCTURE
     1 SR0         1 TEMP              0 ****  ****    0 ROOT
