@<TRIPOS>MOLECULE
molecule
   23    23     1     0     0
SMALL
bcc


@<TRIPOS>ATOM
      1 CS           0.0000     0.0000     0.0000 c3         1 SR1      -0.011000
      2 S            1.8150     0.0000     0.0000 ss         1 SR1      -0.307200
      3 C5'          2.1290     0.0000     1.7870 c3         1 SR1      -0.009300
      4 C4'          3.6390     0.0010     2.0390 c3         1 SR1       0.158100
      5 O4'          4.2060     1.2380     1.5910 os         1 SR1      -0.407600
      6 C1'          4.7890     1.9390     2.7000 c3         1 SR1       0.322900
      7 O1'          5.9810     2.6120     2.2880 oh         1 SR1      -0.570800
      8 C2'          5.1200     0.8430     3.7430 c3         1 SR1       0.109100
      9 O2'          6.3550     0.1930     3.4330 oh         1 SR1      -0.547800
     10 C3'          3.9160    -0.1220     3.5530 c3         1 SR1       0.101100
     11 O3'          4.2750    -1.4590     3.9040 oh         1 SR1      -0.568800
     12 HS1         -0.3610     0.8880     0.5040 h1         1 SR1       0.058033
     13 HS2         -0.3610    -0.8810     0.5180 h1         1 SR1       0.058033
     14 HS3         -0.3610    -0.0080    -1.0210 h1         1 SR1       0.058033
     15 H5'1         1.6890     0.8840     2.2310 h1         1 SR1       0.058200
     16 H5'2         1.6890    -0.8850     2.2310 h1         1 SR1       0.058200
     17 H4'          4.1040    -0.8250     1.5150 h1         1 SR1       0.104700
     18 H1'          4.0770     2.6440     3.1120 h2         1 SR1       0.034700
     19 HO'1         5.7660     3.4830     2.0000 ho         1 SR1       0.408000
     20 H2'          5.1300     1.2550     4.7450 h1         1 SR1       0.045700
     21 HO'2         6.9500     0.2850     4.1590 ho         1 SR1       0.404000
     22 H3'          3.0610     0.2170     4.1260 h1         1 SR1       0.043700
     23 HO'3         3.7920    -1.7240     4.6690 ho         1 SR1       0.400000
@<TRIPOS>BOND
     1     1     2 1
     2     1    12 1
     3     1    13 1
     4     1    14 1
     5     2     3 1
     6     3     4 1
     7     3    15 1
     8     3    16 1
     9     4     5 1
    10     4    10 1
    11     4    17 1
    12     5     6 1
    13     6     7 1
    14     6     8 1
    15     6    18 1
    16     7    19 1
    17     8     9 1
    18     8    10 1
    19     8    20 1
    20     9    21 1
    21    10    11 1
    22    10    22 1
    23    11    23 1
@<TRIPOS>SUBSTRUCTURE
     1 SR1         1 TEMP              0 ****  ****    0 ROOT
