@<TRIPOS>MOLECULE
SR1
   23    23     1     0     0
SMALL
bcc


@<TRIPOS>ATOM
      1 CS         -0.0640   -0.3140    0.3200 c3        1 SR1     -0.044000
      2 S           1.5470   -0.7760    0.8290 ss        1 SR1     -0.275200
      3 C5'         2.1030    0.6940    1.6370 c3        1 SR1     -0.037300
      4 C4'         3.6110    0.6390    1.7840 c3        1 SR1      0.149100
      5 O4'         4.0620    1.9620    2.1390 os        1 SR1     -0.438600
      6 C1'         4.7420    1.9640    3.3840 c3        1 SR1      0.305900
      7 O1'         6.0940    2.1790    3.0680 oh        1 SR1     -0.614800
      8 C2'         4.5240    0.5870    4.0580 c3        1 SR1      0.059100
      9 O2'         5.6740    0.0740    4.6830 oh        1 SR1     -0.583800
     10 C3'         4.0660   -0.3270    2.8970 c3        1 SR1      0.078100
     11 O3'         5.1670   -1.0630    2.3920 oh        1 SR1     -0.596800
     12 HS1        -0.4780   -1.1940   -0.2270 h1        1 SR1      0.065367
     13 HS2        -0.0510    0.5640   -0.3630 h1        1 SR1      0.065367
     14 HS3        -0.7250   -0.0820    1.1850 h1        1 SR1      0.065367
     15 H5'1        1.6180    0.7970    2.6370 h1        1 SR1      0.073700
     16 H5'2        1.8310    1.5990    1.0380 h1        1 SR1      0.073700
     17 H4'         4.1050    0.3880    0.8040 h1        1 SR1      0.102700
     18 H1'         4.3990    2.8400    3.9920 h2        1 SR1      0.110700
     19 HO'1        6.2850    1.7260    2.2350 ho        1 SR1      0.427000
     20 H2'         3.7450    0.6480    4.8620 h1        1 SR1      0.093700
     21 HO'2        6.4440    0.3330    4.1540 ho        1 SR1      0.425000
     22 H3'         3.2430   -1.0220    3.2060 h1        1 SR1      0.076700
     23 HO'3        5.4750   -1.6260    3.1160 ho        1 SR1      0.421000
@<TRIPOS>BOND
     1    1    2 1   
     2    1   12 1   
     3    1   13 1   
     4    1   14 1   
     5    2    3 1   
     6    3    4 1   
     7    3   15 1   
     8    3   16 1   
     9    4    5 1   
    10    4   10 1   
    11    4   17 1   
    12    5    6 1   
    13    6    7 1   
    14    6    8 1   
    15    6   18 1   
    16    7   19 1   
    17    8    9 1   
    18    8   10 1   
    19    8   20 1   
    20    9   21 1   
    21   10   11 1   
    22   10   22 1   
    23   11   23 1   
@<TRIPOS>SUBSTRUCTURE
     1 SR1         1 TEMP              0 ****  ****    0 ROOT
