@<TRIPOS>MOLECULE
molecule
   47    49     1     0     0
SMALL
bcc


@<TRIPOS>ATOM
      1 C4           0.0000     0.0000     0.0000 ca         1 SR2      -0.099000
      2 C3           1.3820     0.0000     0.0000 ca         1 SR2      -0.001900
      3 BrR1         2.3270     0.0040    -1.6380 br         1 SR2      -0.092100
      4 C22          2.0750     0.0000     1.1980 ca         1 SR2      -0.122000
      5 C21          1.3880    -0.0020     2.3970 ca         1 SR2      -0.110000
      6 C20          0.0070    -0.0030     2.4040 ca         1 SR2      -0.155000
      7 C5          -0.6930    -0.0030     1.2040 ca         1 SR2       0.153600
      8 N1          -2.0900    -0.0030     1.2080 nu         1 SR2      -0.757300
      9 C6          -2.7830    -0.6480     0.2030 ca         1 SR2       0.733200
     10 C7          -4.1960    -0.5670     0.1250 ca         1 SR2      -0.299600
     11 C8          -4.9480     0.1630     1.0500 ca         1 SR2      -0.142000
     12 N3          -2.1440    -1.3580    -0.7180 nb         1 SR2      -0.816000
     13 C19         -2.7970    -1.9810    -1.6850 ca         1 SR2       0.717900
     14 N2          -4.1020    -1.9440    -1.8050 nb         1 SR2      -0.761000
     15 C18         -4.8480    -1.2520    -0.9300 ca         1 SR2       0.461600
     16 C17         -6.2440    -1.1890    -1.0330 ca         1 SR2      -0.165300
     17 C13         -6.9590    -0.4730    -0.1230 ca         1 SR2      -0.094000
     18 C9          -6.3220     0.2040     0.9210 ca         1 SR2       0.054600
     19 N11         -7.0830     0.9320     1.8420 ns         1 SR2      -0.477100
     20 C10         -8.2910     0.4760     2.2280 c          1 SR2       0.670300
     21 O61         -8.7560    -0.5230     1.7130 o          1 SR2      -0.602100
     22 C11         -9.0460     1.1850     3.2710 ce         1 SR2      -0.260200
     23 C51        -10.2380     0.7340     3.6530 c2         1 SR2      -0.061200
     24 C61        -11.0120     1.4610     4.7230 c3         1 SR2       0.182000
     25 N63        -12.3460     1.8060     4.2130 n3         1 SR2      -0.726600
     26 C65        -13.1440     0.5970     3.9660 c3         1 SR2       0.148600
     27 C67        -13.0420     2.7160     5.1320 c3         1 SR2       0.148600
     28 H4          -0.5420     0.0000    -0.9380 ha         1 SR2       0.175000
     29 H22          3.1580     0.0000     1.1960 ha         1 SR2       0.143000
     30 H21          1.9330    -0.0030     3.3330 ha         1 SR2       0.137000
     31 H20         -0.5300    -0.0050     3.3450 ha         1 SR2       0.132000
     32 HN1         -2.5890     0.4890     1.9230 hn         1 SR2       0.459800
     33 H8          -4.4590     0.6890     1.8600 ha         1 SR2       0.123000
     34 H19         -2.2270    -2.5470    -2.4120 h5         1 SR2       0.060100
     35 H17         -6.7530    -1.7080    -1.8370 ha         1 SR2       0.159000
     36 H13         -8.0380    -0.4280    -0.2070 ha         1 SR2       0.172000
     37 HN11        -6.7400     1.8010     2.1990 hn         1 SR2       0.325500
     38 H111        -8.6320     2.0750     3.7290 ha         1 SR2       0.128000
     39 H511       -10.6530    -0.1560     3.1950 ha         1 SR2       0.157000
     40 H611       -11.1120     0.8240     5.5930 h1         1 SR2       0.045200
     41 H612       -10.4850     2.3670     4.9970 h1         1 SR2       0.045200
     42 H651       -13.0170     0.2850     2.9360 h1         1 SR2       0.035367
     43 H652       -14.1890     0.8100     4.1530 h1         1 SR2       0.035367
     44 H653       -12.8130    -0.1950     4.6270 h1         1 SR2       0.035367
     45 H671       -14.0120     2.9710     4.7220 h1         1 SR2       0.035367
     46 H672       -12.4550     3.6180     5.2590 h1         1 SR2       0.035367
     47 H673       -13.1710     2.2310     6.0920 h1         1 SR2       0.035367
@<TRIPOS>BOND
     1    27    25 1
     2    25    26 1
     3    25    24 1
     4    24    23 1
     5    23    22 2
     6    22    20 1
     7    20    19 1
     8    20    21 2
     9    19    18 1
    10    18    17 ar
    11    18    11 ar
    12    17    16 ar
    13    11    10 ar
    14    16    15 ar
    15    10    15 ar
    16    10     9 ar
    17    15    14 ar
    18     9     8 1
    19     9    12 ar
    20    14    13 ar
    21     8     7 1
    22    13    12 ar
    23     1     7 ar
    24     1     2 ar
    25     7     6 ar
    26     3     2 1
    27     2     4 ar
    28     6     5 ar
    29     4     5 ar
    30     1    28 1
    31     4    29 1
    32     5    30 1
    33     6    31 1
    34     8    32 1
    35    11    33 1
    36    13    34 1
    37    16    35 1
    38    17    36 1
    39    19    37 1
    40    22    38 1
    41    23    39 1
    42    24    40 1
    43    24    41 1
    44    26    42 1
    45    26    43 1
    46    26    44 1
    47    27    45 1
    48    27    46 1
    49    27    47 1
@<TRIPOS>SUBSTRUCTURE
     1 SR2         1 TEMP              0 ****  ****    0 ROOT
