@<TRIPOS>MOLECULE
SR2
   47    51     1     0     0
SMALL
bcc


@<TRIPOS>ATOM
      1 C4           0.0000     0.0000     0.0000 ca         1 SR2      -0.088000
      2 C3           1.3820     0.0000     0.0000 ca         1 SR2      -0.084000
      3 BrR1         2.3270     0.0040    -1.6380 br         1 SR2       0.011000
      4 C22          2.0750     0.0000     1.1980 ca         1 SR2      -0.099000
      5 C21          1.3880    -0.0020     2.3970 ca         1 SR2      -0.076000
      6 C20          0.0070    -0.0030     2.4040 ca         1 SR2      -0.130000
      7 C5          -0.6930    -0.0030     1.2040 ca         1 SR2      -0.084000
      8 N1          -2.0900    -0.0030     1.2080 nu         1 SR2       0.194000
      9 C6          -2.7830    -0.6480     0.2030 c2         1 SR2       0.013000
     10 C7          -4.1960    -0.5670     0.1250 ca         1 SR2      -0.166000
     11 C8          -4.9480     0.1630     1.0500 ca         1 SR2      -0.115000
     12 N3          -2.1440    -1.3580    -0.7180 n2         1 SR2      -0.188000
     13 C19         -2.7970    -1.9810    -1.6850 c2         1 SR2       0.011000
     14 N2          -4.1020    -1.9440    -1.8050 n2         1 SR2      -0.138000
     15 C18         -4.8480    -1.2520    -0.9300 ca         1 SR2       0.035000
     16 C17         -6.2440    -1.1890    -1.0330 ca         1 SR2      -0.072000
     17 C13         -6.9590    -0.4730    -0.1230 ca         1 SR2      -0.073000
     18 C9          -6.3220     0.2040     0.9210 ca         1 SR2      -0.078000
     19 N11         -7.0830     0.9320     1.8420 nu         1 SR2       0.080000
     20 C10         -8.2910     0.4760     2.2280 c3         1 SR2       0.331000
     21 O61         -8.7560    -0.5230     1.7130 o          1 SR2      -0.433000
     22 C11         -9.0460     1.1850     3.2710 c2         1 SR2      -0.154000
     23 C51        -10.2380     0.7340     3.6530 c2         1 SR2      -0.014000
     24 C61        -11.0120     1.4610     4.7230 DU         1 SR2       0.010000
     25 N63        -12.3460     1.8060     4.2130 n3         1 SR2      -0.084000
     26 C65        -13.1440     0.5970     3.9660 c3         1 SR2      -0.092000
     27 C67        -13.0420     2.7160     5.1320 c3         1 SR2      -0.092000
     28 H4          -0.5420     0.0000    -0.9380 ha         1 SR2       0.152000
     29 H22          3.1580     0.0000     1.1960 ha         1 SR2       0.117000
     30 H21          1.9330    -0.0030     3.3330 ha         1 SR2       0.106000
     31 H20         -0.5300    -0.0050     3.3450 ha         1 SR2       0.106000
     32 HN1         -2.5890     0.4900     1.9220 hn         1 SR2       0.086000
     33 H8          -4.4590     0.6890     1.8600 ha         1 SR2       0.103000
     34 H19         -2.2270    -2.5470    -2.4120 h5         1 SR2       0.134000
     35 H17         -6.7530    -1.7080    -1.8370 ha         1 SR2       0.125000
     36 H13         -8.0380    -0.4280    -0.2070 ha         1 SR2       0.150000
     37 HN11        -6.7420     1.8040     2.1950 hn         1 SR2       0.090000
     38 H111        -8.4870     0.2710     3.4350 DU         1 SR2       0.015000
     39 H511       -10.0320     0.6610     4.7140 DU         1 SR2       0.028000
     40 H611       -10.4850     2.3670     4.9970 ha         1 SR2       0.054500
     41 H612       -11.1120     0.8240     5.5930 ha         1 SR2       0.054500
     42 H651       -13.1430    -0.0230     4.8540 h1         1 SR2       0.042667
     43 H652       -12.7150     0.0440     3.1390 h1         1 SR2       0.042667
     44 H653       -14.1610     0.8790     3.7230 h1         1 SR2       0.042667
     45 H671       -12.4610     3.6230     5.2500 h1         1 SR2       0.042667
     46 H672       -13.1610     2.2350     6.0950 h1         1 SR2       0.042667
     47 H673       -14.0160     2.9620     4.7280 h1         1 SR2       0.042667
@<TRIPOS>BOND
     1     1     2 1   
     2     1     7 1   
     3     1    28 1   
     4     2     3 1   
     5     2     4 1   
     6     4     5 1   
     7     4    29 1   
     8     5     6 1   
     9     5    30 1   
    10     6     7 1   
    11     6    31 1   
    12     7     8 1   
    13     8     9 1   
    14     8    32 1   
    15     9    10 1   
    16     9    12 1   
    17    10    11 1   
    18    10    15 1   
    19    11    18 1   
    20    11    33 1   
    21    12    13 1   
    22    13    14 1   
    23    13    34 1   
    24    14    15 1   
    25    15    16 1   
    26    16    17 1   
    27    16    35 1   
    28    17    18 1   
    29    17    36 1   
    30    18    19 1   
    31    19    20 1   
    32    19    37 1   
    33    20    21 1   
    34    20    22 1   
    35    20    38 1   
    36    22    23 1   
    37    22    38 1   
    38    23    24 1   
    39    23    39 1   
    40    24    25 1   
    41    24    39 1   
    42    24    40 1   
    43    24    41 1   
    44    25    26 1   
    45    25    27 1   
    46    26    42 1   
    47    26    43 1   
    48    26    44 1   
    49    27    45 1   
    50    27    46 1   
    51    27    47 1   
@<TRIPOS>SUBSTRUCTURE
     1 SR2         1 TEMP              0 ****  ****    0 ROOT
