@<TRIPOS>MOLECULE
molecule
   37    36     1     0     0
SMALL
bcc


@<TRIPOS>ATOM
      1 C            0.0000     0.0000     0.0000 c          1 SR3       0.876600
      2 N            1.9960    -1.1960    -0.6900 nu         1 SR3      -0.808000
      3 O           -0.6710     1.1580     0.0970 o          1 SR3      -0.792300
      4 CA           1.5070     0.0000     0.0000 c3         1 SR3       0.167500
      5 CB           2.0170     0.0000     1.4430 c3         1 SR3      -0.002200
      6 CG           3.5240     0.0180     1.4430 c          1 SR3       0.651100
      7 CAA          1.4920     1.2400     2.1690 c3         1 SR3      -0.031100
      8 NAB          7.6830    -0.7190     3.8080 nz         1 SR3      -0.749400
      9 OAC          1.1700    -2.0530    -4.9320 o          1 SR3      -0.506100
     10 OAD          5.8630     0.4980     4.4660 o          1 SR3      -0.365100
     11 CAJ          2.1040    -2.3080    -4.2470 c          1 SR3       0.592100
     12 CAK          1.9590    -2.3100    -2.7270 ce         1 SR3      -0.416200
     13 CAL          2.1260    -1.1940    -2.0470 c2         1 SR3       0.159000
     14 CAM          5.5390    -0.5550     2.3830 c3         1 SR3       0.081400
     15 CAP          6.3450    -0.1900     3.6300 c          1 SR3       0.494100
     16 SAT          1.4310    -1.4890     2.2890 s6         1 SR3      -0.680200
     17 OD1          4.1250     0.2420     0.4190 o          1 SR3      -0.544000
     18 OD2          4.1980    -0.2170     2.5800 os         1 SR3      -0.383900
     19 OXT         -0.6040    -1.0430    -0.0930 o          1 SR3      -0.792300
     20 HN           2.3380    -1.9740    -0.1620 hn         1 SR3       0.404800
     21 HA           1.8680     0.8850    -0.5110 h1         1 SR3       0.067700
     22 HAA          0.5140     1.0280     2.5840 hc         1 SR3       0.053700
     23 HAAA         1.4170     2.0630     1.4690 hc         1 SR3       0.053700
     24 HAAB         2.1730     1.5050     2.9680 hc         1 SR3       0.053700
     25 HNAB         8.2130    -0.5750     2.9710 hn         1 SR3       0.473467
     26 HNAA         8.1290    -0.2480     4.5700 hn         1 SR3       0.473467
     27 HOAG         1.7480    -1.3440     4.4260 ho         1 SR3       0.380000
     28 HOAH         1.4420    -3.0710     3.7670 ho         1 SR3       0.380000
     29 HAJ          3.0520    -2.5720    -4.7010 h4         1 SR3      -0.036800
     30 HAK          1.7180    -3.2300    -2.2080 ha         1 SR3       0.144000
     31 HAL          2.3670    -0.2740    -2.5670 h4         1 SR3       0.130000
     32 HAM          5.9270    -0.0110     1.5310 h1         1 SR3       0.094200
     33 HAMA         5.6200    -1.6200     2.1990 h1         1 SR3       0.094200
     34 HSAT         1.5670    -1.3360     3.6000 hs         1 SR3       0.632800
     35 OAG          2.2070    -1.0060     3.6750 oh         1 SR3      -0.412200
     36 OAH          0.8670    -2.8510     3.0530 oh         1 SR3      -0.412200
     37 HAB3         7.6590    -1.4740     4.4650 hn         1 SR3       0.473467
@<TRIPOS>BOND
     1     3     1 1
     2     1     4 1
     3     1    19 1
     4     4     2 1
     5     2    13 1
     6     2    20 1
     7     5     4 1
     8     4    21 1
     9    16     5 1
    10     6     5 1
    11     5     7 1
    12    17     6 2
    13     6    18 1
    14     7    22 1
    15     7    23 1
    16     7    24 1
    17     8    15 1
    18     8    25 1
    19     8    26 1
    20    11     9 2
    21    10    15 2
    22    16    35 1
    23    35    27 1
    24    36    16 1
    25    36    28 1
    26    12    11 1
    27    11    29 1
    28    13    12 2
    29    12    30 1
    30    13    31 1
    31    15    14 1
    32    14    18 1
    33    14    32 1
    34    14    33 1
    35    16    34 1
    36    37     8 1
@<TRIPOS>SUBSTRUCTURE
     1 SR3         1 TEMP              0 ****  ****    0 ROOT
