@<TRIPOS>MOLECULE
SR3
   38    37     1     0     0
SMALL
bcc


@<TRIPOS>ATOM
      1 C           0.4840   -1.5590    0.7160 c2        1 SR3      0.354000
      2 N           2.0540   -0.8150   -1.1110 n4        1 SR3     -0.019000
      3 O           0.2510   -1.7080    2.0000 os        1 SR3     -0.603000
      4 CA          1.9600   -1.2960    0.3360 c3        1 SR3     -0.035000
      5 CB          2.5640   -0.3050    1.2520 c2        1 SR3     -0.567000
      6 CG          3.9340   -0.4590    1.5790 c2        1 SR3      0.349000
      7 CAA         1.9340    1.0340    1.3340 c3        1 SR3     -0.146000
      8 NAB         5.3640   -0.9880    4.2970 n4        1 SR3     -0.150000
      9 OAC         4.4100   -0.7010   -2.7250 o         1 SR3     -0.296000
     10 OAD         7.3610    0.1800    4.3070 o         1 SR3     -0.179000
     11 CAJ         3.9520   -1.6610   -3.3540 c2        1 SR3      0.213000
     12 CAK         2.6330   -2.2490   -3.0520 c2        1 SR3     -0.203000
     13 CAL         1.7990   -1.8790   -2.0670 c2        1 SR3     -0.103000
     14 CAM         5.9220    0.6310    2.3780 c3        1 SR3     -0.015000
     15 CAP         6.3200   -0.0050    3.6950 c2        1 SR3      0.231000
     16 SAT         1.5720   -1.2590    3.1870 s6        1 SR3      1.670000
     17 OD1         4.6740   -1.4670    1.5560 o         1 SR3     -0.479000
     18 OD2         4.5290    0.6650    2.1690 os        1 SR3     -0.276000
     19 OXT        -0.4260   -1.6500   -0.1120 o         1 SR3     -0.353000
     20 HN          1.3390   -0.0870   -1.2460 hn        1 SR3      0.262500
     21 HA          2.5190   -2.2810    0.3800 hx        1 SR3      0.159000
     22 HAA         0.8190    0.9410    1.3630 hc        1 SR3      0.079000
     23 HAAA        2.2100    1.6720    0.4560 hc        1 SR3      0.079000
     24 HAAB        2.2710    1.5740    2.2550 hc        1 SR3      0.079000
     25 HNAB        5.7660   -1.4400    5.1220 hn        1 SR3      0.278333
     26 HNAA        5.1200   -1.6990    3.5880 hn        1 SR3      0.278333
     27 HOAG        2.1080   -0.9760    5.4220 ho        1 SR3      0.280500
     28 HOAH       -0.4110   -2.0760    3.9580 ho        1 SR3      0.280500
     29 HAJ         4.5100   -2.1380   -4.1900 h4        1 SR3      0.147000
     30 HAK         2.3170   -3.0730   -3.7210 ha        1 SR3      0.189000
     31 HAL         0.8080   -2.3640   -1.8970 hx        1 SR3      0.223000
     32 HAM         6.4600    0.0710    1.5610 h1        1 SR3      0.174000
     33 HAMA        6.2340    1.7160    2.4060 h1        1 SR3      0.174000
     34 HSAT        2.2160   -2.3390    2.9070 hs        1 SR3     -0.232000
     35 OAG         2.5690   -0.9700    4.5850 oh        1 SR3     -0.691000
     36 OAH         0.4610   -1.8470    4.2960 oh        1 SR3     -0.691000
     37 H2          2.9870   -0.3910   -1.2460 hn        1 SR3      0.262500
     38 HAB3        4.4860   -0.5030    4.5670 hn        1 SR3      0.278333
@<TRIPOS>BOND
     1    1    3 1   
     2    1    4 1   
     3    1   19 1   
     4    2    4 1   
     5    2   13 1   
     6    2   20 1   
     7    2   37 1   
     8    3   16 1   
     9    4    5 1   
    10    4   21 1   
    11    5    6 1   
    12    5    7 1   
    13    6   17 1   
    14    6   18 1   
    15    7   22 1   
    16    7   23 1   
    17    7   24 1   
    18    8   15 1   
    19    8   25 1   
    20    8   26 1   
    21    8   38 1   
    22    9   11 1   
    23   10   15 1   
    24   11   12 1   
    25   11   29 1   
    26   12   13 1   
    27   12   30 1   
    28   13   31 1   
    29   14   15 1   
    30   14   18 1   
    31   14   32 1   
    32   14   33 1   
    33   16   34 1   
    34   16   35 1   
    35   16   36 1   
    36   27   35 1   
    37   28   36 1   
@<TRIPOS>SUBSTRUCTURE
     1 SR3         1 TEMP              0 ****  ****    0 ROOT
