@<TRIPOS>MOLECULE
molecule
   57    62     1     0     0
SMALL
bcc


@<TRIPOS>ATOM
      1 CAA          0.0000     0.0000     0.0000 ca         1 SR7      -0.145000
      2 CAB          1.3870     0.0000     0.0000 ca         1 SR7       0.106600
      3 CAC          2.0810     0.0000     1.2160 ca         1 SR7      -0.150500
      4 CAD          1.3720    -0.0010     2.4150 ca         1 SR7      -0.115000
      5 CAE         -0.0080    -0.0010     2.3990 ca         1 SR7      -0.155000
      6 CAF         -0.6930     0.0040     1.1960 ca         1 SR7      -0.102000
      7 CAG          4.0140    -0.2970    -4.8660 ca         1 SR7       0.293300
      8 CAH          3.4010     0.2250    -6.0350 ca         1 SR7       0.315300
      9 NAI          2.2010     0.8120    -5.9480 nb         1 SR7      -0.646000
     10 CAJ          1.6010     0.9010    -4.7850 ca         1 SR7       0.355900
     11 CAK          2.2060     0.3840    -3.6260 ca         1 SR7       0.258500
     12 NAL          3.3910    -0.1990    -3.6920 nb         1 SR7      -0.625000
     13 CAM          5.8870    -1.0040    -6.1810 ca         1 SR7      -0.123000
     14 CAN          5.2840    -0.4860    -7.3270 ca         1 SR7      -0.110000
     15 CAO          4.0650     0.1160    -7.2680 ca         1 SR7      -0.163300
     16 CAP          5.2750    -0.9180    -4.9690 ca         1 SR7      -0.151300
     17 CAQ          7.2740     1.0170     6.1380 c3         1 SR7       0.143800
     18 CAR          7.4980     2.4820     6.5220 c3         1 SR7       0.159300
     19 NAS          6.2770     3.2500     6.2450 n7         1 SR7      -0.822200
     20 CAT          5.9180     3.1680     4.8220 c3         1 SR7       0.159300
     21 CAU          5.6930     1.7030     4.4390 c3         1 SR7       0.143800
     22 NAV          6.9160     0.9340     4.7160 n3         1 SR7      -0.717600
     23 NAW          5.5100    -0.0480     2.3240 na         1 SR7      -0.136900
     24 CAX          5.5550     0.1120     0.9730 cc         1 SR7       0.487900
     25 NAY          4.3380     0.1360     0.4860 nd         1 SR7      -0.687000
     26 CAZ          3.4590    -0.0080     1.4980 cd         1 SR7       0.422800
     27 CBA          4.1610    -0.1250     2.6510 cc         1 SR7      -0.257600
     28 SBB          7.2740     0.2110     0.5560 ss         1 SR7      -0.186300
     29 CBC          7.8270     0.0280     2.2310 cd         1 SR7      -0.051100
     30 CBD          6.7300    -0.0830     2.9580 cc         1 SR7      -0.059600
     31 NBE          2.0890     0.0000    -1.2070 ns         1 SR7      -0.435100
     32 CBF          1.5130     0.4940    -2.3210 c          1 SR7       0.575600
     33 OBG          0.4230     1.0300    -2.2560 o          1 SR7      -0.602100
     34 CBH          6.8150    -0.2490     4.4530 c3         1 SR7       0.271100
     35 HAA         -0.5410     0.0020    -0.9380 ha         1 SR7       0.174000
     36 HAD          1.9030    -0.0030     3.3590 ha         1 SR7       0.129000
     37 HAE         -0.5580    -0.0000     3.3330 ha         1 SR7       0.128000
     38 HAF         -1.7760     0.0040     1.1920 ha         1 SR7       0.134000
     39 HAM          6.8580    -1.4790    -6.2560 ha         1 SR7       0.138000
     40 HAN          5.7930    -0.5680    -8.2800 ha         1 SR7       0.138000
     41 HAO          3.6110     0.5130    -8.1680 ha         1 SR7       0.153000
     42 HAP          5.7540    -1.3250    -4.0880 ha         1 SR7       0.152000
     43 HAQ          8.1840     0.4560     6.3130 h1         1 SR7       0.051950
     44 HAQA         6.4700     0.6070     6.7370 h1         1 SR7       0.051950
     45 HAR          8.3170     2.8860     5.9390 h1         1 SR7       0.041950
     46 HARA         7.7320     2.5460     7.5770 h1         1 SR7       0.041950
     47 HNAS         6.4200     4.2080     6.4980 hn         1 SR7       0.357800
     48 HAT          6.7230     3.5770     4.2230 h1         1 SR7       0.041950
     49 HATA         5.0080     3.7300     4.6470 h1         1 SR7       0.041950
     50 HAU          4.8740     1.3000     5.0210 h1         1 SR7       0.051950
     51 HAUA         5.4590     1.6390     3.3830 h1         1 SR7       0.051950
     52 HBA          3.7550    -0.3920     3.6190 h4         1 SR7       0.184000
     53 HBC          8.8290    -0.2390     2.5440 h4         1 SR7       0.201000
     54 HNBE         2.9980    -0.4150    -1.2570 hn         1 SR7       0.369500
     55 HBH          7.6950    -0.7740     4.8060 h1         1 SR7       0.028700
     56 HBHA         5.9350    -0.6540     4.9390 h1         1 SR7       0.028700
     57 HAJ          0.6300     1.3760    -4.7170 h4         1 SR7       0.057100
@<TRIPOS>BOND
     1     2     1 ar
     2     6     1 ar
     3     1    35 1
     4     3     2 ar
     5     2    31 1
     6    26     3 1
     7     4     3 ar
     8     4     5 ar
     9     4    36 1
    10     5     6 ar
    11     5    37 1
    12     6    38 1
    13     8     7 ar
    14     7    12 ar
    15     7    16 ar
    16     9     8 ar
    17    15     8 ar
    18     9    10 ar
    19    10    11 ar
    20    10    57 1
    21    32    11 1
    22    11    12 ar
    23    14    13 ar
    24    13    16 ar
    25    13    39 1
    26    15    14 ar
    27    14    40 1
    28    15    41 1
    29    16    42 1
    30    18    17 1
    31    17    22 1
    32    17    43 1
    33    17    44 1
    34    18    19 1
    35    18    45 1
    36    18    46 1
    37    19    20 1
    38    19    47 1
    39    20    21 1
    40    20    48 1
    41    20    49 1
    42    21    22 1
    43    21    50 1
    44    21    51 1
    45    22    34 1
    46    30    23 1
    47    23    27 1
    48    23    24 1
    49    28    24 1
    50    24    25 2
    51    26    25 1
    52    27    26 2
    53    27    52 1
    54    29    28 1
    55    30    29 2
    56    29    53 1
    57    34    30 1
    58    31    32 1
    59    31    54 1
    60    32    33 2
    61    34    55 1
    62    34    56 1
@<TRIPOS>SUBSTRUCTURE
     1 SR7         1 TEMP              0 ****  ****    0 ROOT
