@<TRIPOS>MOLECULE
SR7
   57    62     1     0     0
SMALL
bcc


@<TRIPOS>ATOM
      1 CAA          0.0000     0.0000     0.0000 ca         1 SR7      -0.130000
      2 CAB          1.3870     0.0000     0.0000 ca         1 SR7      -0.033400
      3 CAC          2.0810     0.0000     1.2160 ca         1 SR7      -0.160500
      4 CAD          1.3720    -0.0010     2.4150 ca         1 SR7      -0.096000
      5 CAE         -0.0080    -0.0010     2.3990 ca         1 SR7      -0.127000
      6 CAF         -0.6930     0.0040     1.1960 ca         1 SR7      -0.069000
      7 CAG          4.0140    -0.2970    -4.8660 ca         1 SR7       0.250300
      8 CAH          3.4010     0.2250    -6.0350 ca         1 SR7       0.279300
      9 NAI          2.2010     0.8120    -5.9480 nb         1 SR7      -0.547000
     10 CAJ          1.6010     0.9010    -4.7850 ca         1 SR7       0.347900
     11 CAK          2.2060     0.3840    -3.6260 ca         1 SR7       0.202500
     12 NAL          3.3910    -0.1990    -3.6920 nb         1 SR7      -0.511000
     13 CAM          5.8870    -1.0040    -6.1810 ca         1 SR7      -0.096000
     14 CAN          5.2840    -0.4860    -7.3270 ca         1 SR7      -0.082000
     15 CAO          4.0650     0.1160    -7.2680 ca         1 SR7      -0.140300
     16 CAP          5.2750    -0.9180    -4.9690 ca         1 SR7      -0.128300
     17 CAQ          7.2740     1.0170     6.1380 c3         1 SR7       0.106300
     18 CAR          7.4980     2.4820     6.5220 c3         1 SR7       0.149300
     19 NAS          6.2770     3.2500     6.2450 n7         1 SR7      -0.585200
     20 CAT          5.9180     3.1680     4.8220 c3         1 SR7       0.149300
     21 CAU          5.6930     1.7030     4.4390 c3         1 SR7       0.106300
     22 NAV          6.9160     0.9340     4.7160 n3         1 SR7      -0.486600
     23 NAW          5.5100    -0.0480     2.3240 na         1 SR7       0.386100
     24 CAX          5.5550     0.1120     0.9730 cc         1 SR7       0.332900
     25 NAY          4.3380     0.1360     0.4860 nd         1 SR7      -0.598000
     26 CAZ          3.4590    -0.0080     1.4980 cd         1 SR7       0.414800
     27 CBA          4.1610    -0.1250     2.6510 cc         1 SR7      -0.427600
     28 SBB          7.2740     0.2110     0.5560 ss         1 SR7      -0.313300
     29 CBC          7.8270     0.0280     2.2310 cc         1 SR7       0.059900
     30 CBD          6.7300    -0.0830     2.9580 cd         1 SR7      -0.262600
     31 NBE          2.0890     0.0000    -1.2070 ns         1 SR7       0.007900
     32 CBF          1.5130     0.4940    -2.3210 c          1 SR7       0.471600
     33 OBG          0.4230     1.0300    -2.2560 o          1 SR7      -0.648100
     34 CBH          6.8150    -0.2490     4.4530 c3         1 SR7       0.251100
     35 HAA         -0.5410     0.0020    -0.9380 ha         1 SR7       0.157000
     36 HAD          1.9030    -0.0030     3.3590 ha         1 SR7       0.108000
     37 HAE         -0.5580    -0.0000     3.3330 ha         1 SR7       0.101000
     38 HAF         -1.7760     0.0040     1.1920 ha         1 SR7       0.103000
     39 HAM          6.8580    -1.4790    -6.2560 ha         1 SR7       0.107000
     40 HAN          5.7930    -0.5680    -8.2800 ha         1 SR7       0.105000
     41 HAO          3.6110     0.5130    -8.1680 ha         1 SR7       0.121000
     42 HAP          5.7540    -1.3250    -4.0880 ha         1 SR7       0.120000
     43 HAQ          8.1840     0.4560     6.3130 h1         1 SR7       0.027950
     44 HAQA         6.4700     0.6070     6.7370 h1         1 SR7       0.027950
     45 HAR          8.3170     2.8860     5.9390 h1         1 SR7       0.014200
     46 HARA         7.7320     2.5460     7.5770 h1         1 SR7       0.014200
     47 HNAS         6.4200     4.2080     6.4980 hn         1 SR7       0.256800
     48 HAT          6.7230     3.5770     4.2230 h1         1 SR7       0.014200
     49 HATA         5.0080     3.7300     4.6470 h1         1 SR7       0.014200
     50 HAU          4.8740     1.3000     5.0210 h1         1 SR7       0.027950
     51 HAUA         5.4590     1.6390     3.3830 h1         1 SR7       0.027950
     52 HBA          3.7550    -0.3920     3.6190 h4         1 SR7       0.167000
     53 HBC          8.8290    -0.2390     2.5440 h4         1 SR7       0.172000
     54 HNBE         2.9980    -0.4150    -1.2570 hn         1 SR7       0.212500
     55 HBH          7.6950    -0.7740     4.8060 h1         1 SR7       0.007700
     56 HBHA         5.9350    -0.6540     4.9390 h1         1 SR7       0.007700
     57 HAJ          0.6300     1.3760    -4.7170 h4         1 SR7       0.012100
@<TRIPOS>BOND
     1     1     2 ar  
     2     1     6 ar  
     3     1    35 1   
     4     2     3 ar  
     5     2    31 1   
     6     3     4 ar  
     7     3    26 1   
     8     4     5 ar  
     9     4    36 1   
    10     5     6 ar  
    11     5    37 1   
    12     6    38 1   
    13     7     8 ar  
    14     7    12 ar  
    15     7    16 ar  
    16     8     9 ar  
    17     8    15 ar  
    18     9    10 ar  
    19    10    11 ar  
    20    10    57 1   
    21    11    12 ar  
    22    11    32 1   
    23    13    14 ar  
    24    13    16 ar  
    25    13    39 1   
    26    14    15 ar  
    27    14    40 1   
    28    15    41 1   
    29    16    42 1   
    30    17    18 1   
    31    17    22 1   
    32    17    43 1   
    33    17    44 1   
    34    18    19 1   
    35    18    45 1   
    36    18    46 1   
    37    19    20 1   
    38    19    47 1   
    39    20    21 1   
    40    20    48 1   
    41    20    49 1   
    42    21    22 1   
    43    21    50 1   
    44    21    51 1   
    45    22    34 1   
    46    23    24 1   
    47    23    27 1   
    48    23    30 1   
    49    24    25 2   
    50    24    28 1   
    51    25    26 1   
    52    26    27 2   
    53    27    52 1   
    54    28    29 1   
    55    29    30 2   
    56    29    53 1   
    57    30    34 1   
    58    31    32 1   
    59    31    54 1   
    60    32    33 2   
    61    34    55 1   
    62    34    56 1   
@<TRIPOS>SUBSTRUCTURE
     1 SR7         1 TEMP              0 ****  ****    0 ROOT
