@<TRIPOS>MOLECULE
SR8
   46    48     1     0     0
SMALL
bcc


@<TRIPOS>ATOM
      1 O1         -0.3500   -0.1710   -0.0460 o         1 SR8     -0.603100
      2 C9          0.8750    0.0740   -0.0430 c         1 SR8      0.779100
      3 N3          1.5870    0.2610    1.1660 n         1 SR8     -0.527400
      4 C8          0.9270    0.4180    2.3860 cc        1 SR8      0.430200
      5 C7         -0.4210   -0.0640    2.7290 cc        1 SR8     -0.341600
      6 C2         -0.5730    0.2790    4.0550 cd        1 SR8      0.279000
      7 C3         -1.6520    0.1200    5.0630 c3        1 SR8     -0.085300
      8 C6         -2.8390   -0.5930    4.4260 c3        1 SR8     -0.089767
      9 C5         -1.1310   -0.7020    6.2380 c3        1 SR8     -0.089767
     10 C4         -2.0890    1.4950    5.5590 c3        1 SR8     -0.089767
     11 N1          1.4780    1.0060    3.4930 nd        1 SR8     -0.416300
     12 N4          1.6230    0.1790   -1.2340 n         1 SR8     -0.461100
     13 C10         1.1190   -0.2150   -2.4900 ca        1 SR8      0.056600
     14 C20        -0.2360   -0.0440   -2.8450 ca        1 SR8     -0.143000
     15 C19        -0.6750   -0.3850   -4.1200 ca        1 SR8     -0.117000
     16 C13         0.2320   -0.8960   -5.0530 ca        1 SR8      0.067100
     17 C12         1.5800   -1.0760   -4.7220 ca        1 SR8     -0.117000
     18 C11         2.0210   -0.7370   -3.4490 ca        1 SR8     -0.143000
     19 O2         -0.1290   -1.1230   -6.3820 os        1 SR8     -0.243200
     20 C14        -1.1480   -2.0340   -6.6050 ca        1 SR8      0.151100
     21 C18        -1.6720   -2.9040   -5.6400 ca        1 SR8     -0.288800
     22 C17        -2.6800   -3.7950   -6.0470 ca        1 SR8      0.418700
     23 N5         -3.1650   -3.8600   -7.3010 nb        1 SR8     -0.684000
     24 C16        -2.6430   -3.0110   -8.2100 ca        1 SR8      0.418700
     25 C15        -1.6360   -2.0760   -7.9240 ca        1 SR8     -0.288800
     26 O3          0.6140    0.9250    4.4820 os        1 SR8     -0.113100
     27 H4          2.6180    0.1660   -1.1650 hn        1 SR8      0.313500
     28 H7         -1.1120   -0.5590    2.0510 ha        1 SR8      0.204000
     29 H3          2.5140    0.6310    1.1250 hn        1 SR8      0.327500
     30 H61C       -3.6520   -0.7120    5.1810 hc        1 SR8      0.045589
     31 H62C       -3.2310   -0.0040    3.5630 hc        1 SR8      0.045589
     32 H63C       -2.5360   -1.6040    4.0610 hc        1 SR8      0.045589
     33 H51C       -0.8370   -1.7230    5.8980 hc        1 SR8      0.045589
     34 H52C       -1.9290   -0.7960    7.0130 hc        1 SR8      0.045589
     35 H53C       -0.2410   -0.2020    6.6900 hc        1 SR8      0.045589
     36 H41C       -2.8770    1.3810    6.3400 hc        1 SR8      0.045589
     37 H42C       -2.5030    2.0990    4.7160 hc        1 SR8      0.045589
     38 H43C       -1.2180    2.0390    5.9970 hc        1 SR8      0.045589
     39 H20        -0.9600    0.3520   -2.1130 ha        1 SR8      0.155500
     40 H11         3.0840   -0.8790   -3.2010 ha        1 SR8      0.155500
     41 H19        -1.7330   -0.2520   -4.3950 ha        1 SR8      0.154000
     42 H12         2.2810   -1.4740   -5.4720 ha        1 SR8      0.154000
     43 H18        -1.3110   -2.8930   -4.6030 ha        1 SR8      0.159000
     44 H15        -1.2360   -1.4040   -8.6930 ha        1 SR8      0.159000
     45 H17        -3.1240   -4.5020   -5.3220 h4        1 SR8      0.025100
     46 H16        -3.0590   -3.0860   -9.2310 h4        1 SR8      0.025100
@<TRIPOS>BOND
     1    1    2 2
     2    2    3 1
     3    2   12 1
     4    3    4 1
     5    3   29 1
     6    4    5 1
     7    4   11 2
     8    5    6 2
     9    5   28 1
    10    6    7 1
    11    6   26 1
    12    7    8 1
    13    7    9 1
    14    7   10 1
    15    8   30 1
    16    8   31 1
    17    8   32 1
    18    9   33 1
    19    9   34 1
    20    9   35 1
    21   10   36 1
    22   10   37 1
    23   10   38 1
    24   11   26 1
    25   12   13 1
    26   12   27 1
    27   13   14 ar
    28   13   18 ar
    29   14   15 ar
    30   14   39 1
    31   15   16 ar
    32   15   41 1
    33   16   17 ar
    34   16   19 1
    35   17   18 ar
    36   17   42 1
    37   18   40 1
    38   19   20 1
    39   20   21 ar
    40   20   25 ar
    41   21   22 ar
    42   21   43 1
    43   22   23 ar
    44   22   45 1
    45   23   24 ar
    46   24   25 ar
    47   24   46 1
    48   25   44 1
@<TRIPOS>SUBSTRUCTURE
     1 SR8         1 TEMP              0 ****  ****    0 ROOT
