@<TRIPOS>MOLECULE
molecule
   37    39     1     0     0
SMALL
bcc


@<TRIPOS>ATOM
      1 Cl19         0.0000     0.0000     0.0000 cl         1 SRE      -0.090400
      2 C16          1.7360     0.0000     0.0000 ca         1 SRE       0.026400
      3 C15          2.4290     0.0000     1.1990 ca         1 SRE       0.031400
      4 Cl20         1.5620     0.0010     2.7020 cl         1 SRE      -0.086400
      5 C17          2.4290    -0.0070    -1.1970 ca         1 SRE      -0.115000
      6 C18          3.8100    -0.0070    -1.1970 ca         1 SRE      -0.122000
      7 C13          4.5010    -0.0010    -0.0000 ca         1 SRE      -0.067300
      8 C14          3.8120    -0.0010     1.1970 ca         1 SRE      -0.102000
      9 C4           6.0090    -0.0030    -0.0010 c3         1 SRE       0.026900
     10 C5           6.5070     1.2450     0.6790 ca         1 SRE      -0.066300
     11 C6           5.8570     2.4390     0.3970 ca         1 SRE      -0.123000
     12 C7           6.2700     3.6180     0.9840 ca         1 SRE      -0.126000
     13 C8           7.3390     3.6110     1.8580 ca         1 SRE      -0.128000
     14 C9           7.9850     2.4250     2.1430 ca         1 SRE      -0.123000
     15 C10          7.5690     1.2380     1.5570 ca         1 SRE      -0.054300
     16 C1           8.3090    -0.0220     1.9230 c3         1 SRE       0.211800
     17 N11          7.8730    -0.4710     3.2520 n7         1 SRE      -0.814200
     18 C12          8.6300     0.2090     4.3110 c3         1 SRE       0.144100
     19 C2           8.0300    -1.1250     0.9030 c3         1 SRE      -0.084400
     20 C3           6.5120    -1.2480     0.7260 c3         1 SRE      -0.072400
     21 H17          1.8870    -0.0120    -2.1360 ha         1 SRE       0.149000
     22 H18          4.3520    -0.0110    -2.1350 ha         1 SRE       0.140000
     23 H14          4.3550     0.0020     2.1350 ha         1 SRE       0.166000
     24 H4           6.3700    -0.0180    -1.0220 hc         1 SRE       0.064700
     25 H6           5.0190     2.4450    -0.2880 ha         1 SRE       0.135000
     26 H7           5.7590     4.5460     0.7570 ha         1 SRE       0.130000
     27 H8           7.6680     4.5330     2.3220 ha         1 SRE       0.129000
     28 H9           8.8230     2.4210     2.8290 ha         1 SRE       0.128000
     29 H1           9.3720     0.1830     1.9420 h1         1 SRE       0.034700
     30 H12          9.5370     0.6290     3.8940 h1         1 SRE       0.032367
     31 H12A         8.8860    -0.5040     5.0860 h1         1 SRE       0.032367
     32 H2           8.4320    -2.0640     1.2640 hc         1 SRE       0.048200
     33 H2A          8.4870    -0.8670    -0.0450 hc         1 SRE       0.048200
     34 H3           6.2850    -2.1290     0.1380 hc         1 SRE       0.057200
     35 H3A          6.0370    -1.3190     1.6970 hc         1 SRE       0.057200
     36 H16          8.0040    -1.4600     3.3300 hn         1 SRE       0.353800
     37 H171         8.0260     1.0020     4.7350 h1         1 SRE       0.032367
@<TRIPOS>BOND
     1     1     2 1
     2     2     5 ar
     3     3     2 ar
     4     3     8 ar
     5     4     3 1
     6     5     6 ar
     7     5    21 1
     8     6    22 1
     9     7     6 ar
    10     7     9 1
    11     8     7 ar
    12     8    23 1
    13     9    20 1
    14     9    10 1
    15     9    24 1
    16    10    15 ar
    17    11    10 ar
    18    11    12 ar
    19    11    25 1
    20    12    13 ar
    21    12    26 1
    22    13    14 ar
    23    13    27 1
    24    14    28 1
    25    15    14 ar
    26    15    16 1
    27    16    17 1
    28    16    29 1
    29    17    18 1
    30    18    30 1
    31    18    31 1
    32    19    16 1
    33    19    32 1
    34    19    33 1
    35    20    19 1
    36    20    34 1
    37    20    35 1
    38    17    36 1
    39    18    37 1
@<TRIPOS>SUBSTRUCTURE
     1 SRE         1 TEMP              0 ****  ****    0 ROOT
