@<TRIPOS>MOLECULE
molecule
   73    73     1     0     0
SMALL
bcc


@<TRIPOS>ATOM
      1 C8           0.0000     0.0000     0.0000 c          1 SRG       0.772100
      2 C6           3.1010    -2.2310     0.8030 c3         1 SRG      -0.077600
      3 C5           2.8810    -1.4250     3.1570 c3         1 SRG      -0.077600
      4 C4           2.2270    -1.4350     1.7740 c3         1 SRG      -0.066700
      5 O2           3.7740     0.9900    -0.0370 o          1 SRG      -0.843800
      6 C1           3.4460     0.6020     1.0590 c          1 SRG       0.888600
      7 C3           2.0800     0.0020     1.2690 c3         1 SRG       0.023700
      8 N7           1.3480     0.0000     0.0000 ns         1 SRG      -0.557900
      9 O9          -0.6080     0.0000     1.0530 o          1 SRG      -0.701100
     10 N36         -0.6740     0.0040    -1.1670 ns         1 SRG      -0.601900
     11 C11         -2.1400     0.0030    -1.1670 c3         1 SRG       0.074700
     12 C12         -2.6510     1.4390    -1.0350 c3         1 SRG      -0.084700
     13 C13         -2.2510     1.9990     0.3320 c3         1 SRG      -0.087600
     14 C14         -2.0370     2.3020    -2.1390 c3         1 SRG      -0.087600
     15 C15         -2.6420    -0.5920    -2.4570 c          1 SRG       0.657100
     16 O16         -1.9040    -0.6720    -3.4160 o          1 SRG      -0.599100
     17 N17         -3.9120    -1.0360    -2.5450 ns         1 SRG      -0.592900
     18 C18         -4.4330    -1.5110    -3.8280 c3         1 SRG       0.085900
     19 C19         -5.9370    -1.3700    -3.8540 c          1 SRG       0.664100
     20 O20         -6.5030    -1.0630    -4.8820 o          1 SRG      -0.578100
     21 N21         -6.6490    -1.5890    -2.7200 ns         1 SRG      -0.601900
     22 C22         -8.0820    -1.9120    -2.8870 c3         1 SRG       0.141900
     23 C23         -8.7550    -0.8600    -3.7720 c3         1 SRG      -0.109700
     24 C24        -10.2600    -1.1260    -3.8270 c3         1 SRG      -0.087100
     25 C25         -8.5030     0.5320    -3.1910 c3         1 SRG      -0.087100
     26 C26         -8.1560    -3.2690    -3.5520 c2         1 SRG      -0.094200
     27 C27         -7.3090    -4.2180    -3.1600 ce         1 SRG      -0.249200
     28 C28         -7.3040    -5.5410    -3.7960 c          1 SRG       0.667300
     29 O29         -8.1690    -5.8330    -4.6000 o          1 SRG      -0.617100
     30 N30         -6.3340    -6.4370    -3.4870 ns         1 SRG      -0.582900
     31 C31         -5.3160    -6.0530    -2.4960 c3         1 SRG       0.096000
     32 C32         -4.1830    -5.2930    -3.1900 c3         1 SRG      -0.068200
     33 C33         -4.4230    -3.8130    -3.0430 c2         1 SRG      -0.159200
     34 C34         -4.1130    -2.9790    -4.0030 c2         1 SRG      -0.173200
     35 H6           4.0550    -1.7320     0.6830 hc         1 SRG       0.029867
     36 H6A          3.2610    -3.2270     1.1960 hc         1 SRG       0.029867
     37 H6B          2.6050    -2.2970    -0.1580 hc         1 SRG       0.029867
     38 H5           3.9580    -1.4580     3.0480 hc         1 SRG       0.029867
     39 H5A          2.5490    -2.2890     3.7200 hc         1 SRG       0.029867
     40 H5B          2.5990    -0.5210     3.6830 hc         1 SRG       0.029867
     41 H3           1.5350     0.5870     1.9990 h1         1 SRG       0.071700
     42 HN7          1.8480     0.0410    -0.8660 hn         1 SRG       0.327500
     43 HN36        -0.1740    -0.0340    -2.0330 hn         1 SRG       0.329500
     44 H11         -2.5000    -0.5860    -0.3330 h1         1 SRG       0.080700
     45 H12         -3.7300     1.4490    -1.1270 hc         1 SRG       0.028700
     46 H13         -2.4790     1.2710     1.1010 hc         1 SRG       0.043200
     47 H13A        -1.1880     2.2100     0.3390 hc         1 SRG       0.043200
     48 H13B        -2.8010     2.9120     0.5230 hc         1 SRG       0.043200
     49 H14         -1.0050     2.5210    -1.8940 hc         1 SRG       0.043200
     50 H14A        -2.0790     1.7680    -3.0800 hc         1 SRG       0.043200
     51 H14B        -2.5920     3.2280    -2.2240 hc         1 SRG       0.043200
     52 HN17        -4.4900    -1.0630    -1.7280 hn         1 SRG       0.308500
     53 H18         -3.9960    -0.9400    -4.6380 h1         1 SRG       0.116700
     54 HN21        -6.3130    -1.2430    -1.8430 hn         1 SRG       0.316500
     55 H22         -8.5680    -1.9470    -1.9200 h1         1 SRG       0.068700
     56 H23         -8.3430    -0.9130    -4.7730 hc         1 SRG       0.113700
     57 H24        -10.6270    -1.3280    -2.8280 hc         1 SRG       0.033533
     58 H24A       -10.4530    -1.9810    -4.4630 hc         1 SRG       0.033533
     59 H24B       -10.7660    -0.2560    -4.2280 hc         1 SRG       0.033533
     60 H25         -7.5270     0.8830    -3.5040 hc         1 SRG       0.033533
     61 H25A        -9.2630     1.2150    -3.5480 hc         1 SRG       0.033533
     62 H25B        -8.5400     0.4840    -2.1090 hc         1 SRG       0.033533
     63 H26         -8.8610    -3.4570    -4.3520 ha         1 SRG       0.162000
     64 H27         -6.5890    -4.0030    -2.3800 ha         1 SRG       0.142000
     65 HN30        -6.4350    -7.3970    -3.7540 hn         1 SRG       0.324500
     66 H31         -4.9170    -6.9430    -2.0250 h1         1 SRG       0.049200
     67 H31A        -5.7670    -5.4180    -1.7430 h1         1 SRG       0.049200
     68 H32         -4.1620    -5.5540    -4.2420 hc         1 SRG       0.066200
     69 H32A        -3.2370    -5.5540    -2.7330 hc         1 SRG       0.066200
     70 H33         -4.9010    -3.4400    -2.1450 ha         1 SRG       0.121000
     71 H34         -3.6760    -3.3430    -4.9250 ha         1 SRG       0.147000
     72 O35          4.2950     0.7170     2.0930 o          1 SRG      -0.843800
     73 H4           1.2490    -1.8960     1.8400 hc         1 SRG       0.029700
@<TRIPOS>BOND
     1     1     8 1
     2     1     9 2
     3     1    10 1
     4     2     4 1
     5     3     4 1
     6     4     7 1
     7     5     6 1
     8     6     7 1
     9     6    72 1
    10     7     8 1
    11    10    11 1
    12    11    12 1
    13    11    15 1
    14    12    13 1
    15    12    14 1
    16    15    16 2
    17    15    17 1
    18    17    18 1
    19    18    19 1
    20    18    34 1
    21    19    20 2
    22    19    21 1
    23    21    22 1
    24    22    23 1
    25    22    26 1
    26    23    24 1
    27    23    25 1
    28    26    27 2
    29    27    28 1
    30    28    29 2
    31    28    30 1
    32    30    31 1
    33    31    32 1
    34    32    33 1
    35    33    34 2
    36     2    35 1
    37     2    36 1
    38     2    37 1
    39     3    38 1
    40     3    39 1
    41     3    40 1
    42     4    73 1
    43     7    41 1
    44     8    42 1
    45    10    43 1
    46    11    44 1
    47    12    45 1
    48    13    46 1
    49    13    47 1
    50    13    48 1
    51    14    49 1
    52    14    50 1
    53    14    51 1
    54    17    52 1
    55    18    53 1
    56    21    54 1
    57    22    55 1
    58    23    56 1
    59    24    57 1
    60    24    58 1
    61    24    59 1
    62    25    60 1
    63    25    61 1
    64    25    62 1
    65    26    63 1
    66    27    64 1
    67    30    65 1
    68    31    66 1
    69    31    67 1
    70    32    68 1
    71    32    69 1
    72    33    70 1
    73    34    71 1
@<TRIPOS>SUBSTRUCTURE
     1 SRG         1 TEMP              0 ****  ****    0 ROOT
