@<TRIPOS>MOLECULE
SRG
   73    77     1     0     0
SMALL
bcc


@<TRIPOS>ATOM
      1 C8           0.0000     0.0000     0.0000 c2         1 SRG       0.191000
      2 C6           3.1010    -2.2310     0.8030 c3         1 SRG      -0.120000
      3 C5           2.8810    -1.4250     3.1570 c3         1 SRG      -0.120000
      4 C4           2.2270    -1.4350     1.7740 c3         1 SRG      -0.077000
      5 O2           3.7740     0.9900    -0.0370 o          1 SRG      -0.624500
      6 C1           3.4460     0.6020     1.0590 c2         1 SRG       0.398000
      7 C3           2.0800     0.0020     1.2690 c3         1 SRG      -0.114000
      8 N7           1.3480     0.0000     0.0000 ns         1 SRG       0.037000
      9 O9          -0.6080     0.0000     1.0530 o          1 SRG      -0.510000
     10 N36         -0.6740     0.0040    -1.1670 ns         1 SRG      -0.040000
     11 C11         -2.1400     0.0030    -1.1670 c3         1 SRG      -0.049000
     12 C12         -2.6510     1.4390    -1.0350 c3         1 SRG      -0.095000
     13 C13         -2.2510     1.9990     0.3320 c3         1 SRG      -0.131000
     14 C14         -2.0370     2.3020    -2.1390 c3         1 SRG      -0.131000
     15 C15         -2.6420    -0.5920    -2.4570 c2         1 SRG       0.220000
     16 O16         -1.9040    -0.6720    -3.4160 o          1 SRG      -0.380000
     17 N17         -3.9120    -1.0360    -2.5450 ns         1 SRG      -0.013000
     18 C18         -4.4330    -1.5110    -3.8280 DU         1 SRG      -0.089000
     19 C19         -5.9370    -1.3700    -3.8540 c2         1 SRG       0.216000
     20 O20         -6.5030    -1.0630    -4.8820 o          1 SRG      -0.367000
     21 N21         -6.6490    -1.5890    -2.7200 ns         1 SRG      -0.038000
     22 C22         -8.0820    -1.9120    -2.8870 DU         1 SRG      -0.001000
     23 C23         -8.7550    -0.8600    -3.7720 c3         1 SRG      -0.163000
     24 C24        -10.2600    -1.1260    -3.8270 c3         1 SRG      -0.109500
     25 C25         -8.5030     0.5320    -3.1910 c3         1 SRG      -0.109500
     26 C26         -8.1560    -3.2690    -3.5520 c2         1 SRG      -0.131000
     27 C27         -7.3090    -4.2180    -3.1600 c2         1 SRG      -0.165000
     28 C28         -7.3040    -5.5410    -3.7960 c3         1 SRG       0.271000
     29 O29         -8.1690    -5.8330    -4.6000 o          1 SRG      -0.424000
     30 N30         -6.3340    -6.4370    -3.4870 n7         1 SRG      -0.050000
     31 C31         -5.3160    -6.0530    -2.4960 c3         1 SRG      -0.094000
     32 C32         -4.1830    -5.2930    -3.1900 DU         1 SRG      -0.148000
     33 C33         -4.4230    -3.8130    -3.0430 c2         1 SRG      -0.261000
     34 C34         -4.1130    -2.9790    -4.0030 c2         1 SRG      -0.164000
     35 H6           3.2500    -3.2320     1.1890 hc         1 SRG       0.043000
     36 H6A          4.0600    -1.7390     0.6940 hc         1 SRG       0.043000
     37 H6B          2.6110    -2.2850    -0.1620 hc         1 SRG       0.043000
     38 H5           3.9580    -1.4580     3.0480 hc         1 SRG       0.043000
     39 H5A          2.5490    -2.2890     3.7200 hc         1 SRG       0.043000
     40 H5B          2.5990    -0.5210     3.6830 hc         1 SRG       0.043000
     41 H3           1.5350     0.5870     1.9990 h1         1 SRG       0.095000
     42 HN7          1.8480     0.0580    -0.8650 hn         1 SRG       0.104000
     43 HN36        -0.1750    -0.0360    -2.0330 hn         1 SRG       0.108000
     44 H11         -2.5000    -0.5860    -0.3330 h1         1 SRG       0.101000
     45 H12         -3.7300     1.4490    -1.1270 hc         1 SRG       0.044000
     46 H13         -2.8020     2.9120     0.5240 hc         1 SRG       0.055833
     47 H13A        -1.1880     2.2110     0.3390 hc         1 SRG       0.055833
     48 H13B        -2.4790     1.2710     1.1010 hc         1 SRG       0.055833
     49 H14         -0.9930     2.4870    -1.9140 hc         1 SRG       0.055833
     50 H14A        -2.5670     3.2450    -2.1970 hc         1 SRG       0.055833
     51 H14B        -2.1150     1.7850    -3.0870 hc         1 SRG       0.055833
     52 HN17        -4.4900    -1.0650    -1.7280 hn         1 SRG       0.106000
     53 H18         -3.9960    -0.9400    -4.6380 ha         1 SRG       0.134000
     54 HN21        -6.3130    -1.2440    -1.8430 hn         1 SRG       0.109000
     55 H22         -8.5680    -1.9470    -1.9200 ha         1 SRG       0.059000
     56 H23         -8.3430    -0.9130    -4.7730 hc         1 SRG       0.142000
     57 H24        -10.4430    -2.0680    -4.3290 hc         1 SRG       0.043833
     58 H24A       -10.7490    -0.3260    -4.3700 hc         1 SRG       0.043833
     59 H24B       -10.6550    -1.1720    -2.8190 hc         1 SRG       0.043833
     60 H25         -7.5160     0.8720    -3.4820 hc         1 SRG       0.043833
     61 H25A        -9.2480     1.2210    -3.5680 hc         1 SRG       0.043833
     62 H25B        -8.5650     0.4890    -2.1100 hc         1 SRG       0.043833
     63 H26         -7.4400    -2.4930    -3.7930 DU         1 SRG       0.145000
     64 H27         -8.0510    -4.9820    -2.9590 DU         1 SRG       0.110000
     65 HN30        -6.1880    -7.2380    -4.0690 hn         1 SRG       0.108000
     66 H31         -5.7680    -5.4180    -1.7430 h1         1 SRG       0.080500
     67 H31A        -4.9170    -6.9430    -2.0250 h1         1 SRG       0.080500
     68 H32         -4.1620    -5.5540    -4.2420 ha         1 SRG       0.090500
     69 H32A        -3.2370    -5.5540    -2.7330 ha         1 SRG       0.090500
     70 H33         -4.9810    -4.4830    -3.6860 DU         1 SRG       0.222000
     71 H34         -3.4710    -2.2930    -3.4640 DU         1 SRG       0.179000
     72 O35          4.3010     0.7010     2.0890 o          1 SRG      -0.624500
     73 H4           1.2490    -1.8960     1.8400 hc         1 SRG       0.048000
@<TRIPOS>BOND
     1     1     8 1   
     2     1     9 1   
     3     1    10 1   
     4     2     4 1   
     5     2    35 1   
     6     2    36 1   
     7     2    37 1   
     8     3     4 1   
     9     3    38 1   
    10     3    39 1   
    11     3    40 1   
    12     4     7 1   
    13     4    73 1   
    14     5     6 1   
    15     6     7 1   
    16     6    72 1   
    17     7     8 1   
    18     7    41 1   
    19     8    42 1   
    20    10    11 1   
    21    10    43 1   
    22    11    12 1   
    23    11    15 1   
    24    11    44 1   
    25    12    13 1   
    26    12    14 1   
    27    12    45 1   
    28    13    46 1   
    29    13    47 1   
    30    13    48 1   
    31    14    49 1   
    32    14    50 1   
    33    14    51 1   
    34    15    16 1   
    35    15    17 1   
    36    17    18 1   
    37    17    52 1   
    38    18    19 1   
    39    18    34 1   
    40    18    53 1   
    41    18    71 1   
    42    19    20 1   
    43    19    21 1   
    44    21    22 1   
    45    21    54 1   
    46    22    23 1   
    47    22    26 1   
    48    22    55 1   
    49    22    63 1   
    50    23    24 1   
    51    23    25 1   
    52    23    56 1   
    53    24    57 1   
    54    24    58 1   
    55    24    59 1   
    56    25    60 1   
    57    25    61 1   
    58    25    62 1   
    59    26    27 1   
    60    26    63 1   
    61    27    28 1   
    62    27    64 1   
    63    28    29 1   
    64    28    30 1   
    65    28    64 1   
    66    30    31 1   
    67    30    65 1   
    68    31    32 1   
    69    31    66 1   
    70    31    67 1   
    71    32    33 1   
    72    32    68 1   
    73    32    69 1   
    74    32    70 1   
    75    33    34 1   
    76    33    70 1   
    77    34    71 1   
@<TRIPOS>SUBSTRUCTURE
     1 SRG         1 TEMP              0 ****  ****    0 ROOT
