@<TRIPOS>MOLECULE
SRI
   11    10     1     0     0
SMALL
bcc


@<TRIPOS>ATOM
      1 O            0.0000     0.0000     0.0000 o          1 SRI      -0.884300
      2 C            1.2140     0.0000     0.0000 c          1 SRI       0.861300
      3 OXT          1.8880     0.0000     1.1660 o          1 SRI      -0.884300
      4 CA           1.9550    -0.0070    -1.2830 ce         1 SRI       0.293300
      5 N            3.2360    -0.0070    -1.2840 n2         1 SRI      -0.659100
      6 CB           1.2020    -0.0130    -2.5890 c3         1 SRI       0.194100
      7 OG           2.1300    -0.0180    -3.6750 oh         1 SRI      -0.583800
      8 HN           3.7370    -0.0020    -0.4170 hn         1 SRI       0.328400
      9 HB1          0.5790     0.8710    -2.6510 h1         1 SRI      -0.010300
     10 HB2          0.5790    -0.8980    -2.6420 h1         1 SRI      -0.010300
     11 HOG          1.6590    -0.0220    -4.4910 ho         1 SRI       0.354000
@<TRIPOS>BOND
     1     1     2 1   
     2     2     3 1   
     3     2     4 1   
     4     4     5 2   
     5     4     6 1   
     6     5     8 1   
     7     6     7 1   
     8     6     9 1   
     9     6    10 1   
    10     7    11 1   
@<TRIPOS>SUBSTRUCTURE
     1 SRI         1 TEMP              0 ****  ****    0 ROOT
