@<TRIPOS>MOLECULE
molecule
   75    75     1     0     0
SMALL
bcc


@<TRIPOS>ATOM
      1 C1           0.0000     0.0000     0.0000 ca         1 SRL      -0.080300
      2 C2           1.3880     0.0000     0.0000 ca         1 SRL       0.134100
      3 C3           2.0860     0.0000     1.2000 ca         1 SRL      -0.080300
      4 C4           1.4020     0.0000     2.3970 ca         1 SRL      -0.092000
      5 C5           0.0060    -0.0000     2.4010 ca         1 SRL      -0.126800
      6 C6          -0.6910    -0.0070     1.1930 ca         1 SRL      -0.092000
      7 C7          -0.7300    -0.0010     3.6810 ce         1 SRL       0.181800
      8 C8          -1.7180     0.8620     3.8770 cf         1 SRL      -0.572200
      9 P9          -2.7510     0.7350     5.3630 py         1 SRL       1.403200
     10 P10         -2.0380     2.1660     2.6590 py         1 SRL       1.403200
     11 O11          2.0670    -0.0010    -1.1770 oh         1 SRL      -0.520100
     12 C12         -0.7520    -0.0000    -1.3050 c3         1 SRL      -0.014700
     13 C13          3.5930    -0.0010     1.1950 c3         1 SRL      -0.014700
     14 C14         -2.2570    -0.0020    -1.0280 c3         1 SRL      -0.084933
     15 C15         -0.3830     1.2500    -2.1060 c3         1 SRL      -0.084933
     16 C16         -0.3800    -1.2470    -2.1090 c3         1 SRL      -0.084933
     17 C17          4.1080    -0.0000     2.6360 c3         1 SRL      -0.084933
     18 C18          4.1000    -1.2490     0.4720 c3         1 SRL      -0.084933
     19 C19          4.1000     1.2480     0.4720 c3         1 SRL      -0.084933
     20 O20         -2.2880    -0.4020     6.1900 o          1 SRL      -0.798300
     21 O21         -2.6360     2.0970     6.2140 os         1 SRL      -0.536200
     22 C22         -1.3860     2.0490     6.9040 c3         1 SRL       0.124150
     23 C23         -1.1500     3.3780     7.6250 c3         1 SRL      -0.088350
     24 O24         -4.2830     0.4980     4.9350 os         1 SRL      -0.536200
     25 C25         -5.0170     0.2550     6.1360 c3         1 SRL       0.124150
     26 C26         -6.5060     0.1330     5.8100 c3         1 SRL      -0.088350
     27 O27         -0.7530     2.6900     2.1490 o          1 SRL      -0.798300
     28 O28         -2.8950     1.5610     1.4380 os         1 SRL      -0.536200
     29 C29         -4.1600     1.1700     1.9730 c3         1 SRL       0.124150
     30 C30         -5.0990     0.7800     0.8300 c3         1 SRL      -0.088350
     31 O31         -2.8670     3.3580     3.3560 os         1 SRL      -0.536200
     32 C32         -2.9450     4.4180     2.4000 c3         1 SRL       0.124150
     33 C33         -3.6280     5.6300     3.0390 c3         1 SRL      -0.088350
     34 HC4          1.9470     0.0030     3.3330 ha         1 SRL       0.148500
     35 HC6         -1.7740    -0.0070     1.1920 ha         1 SRL       0.148500
     36 HC7         -0.5410    -0.7790     4.4100 ha         1 SRL       0.158000
     37 H11          2.2310    -0.8900    -1.4440 ho         1 SRL       0.417000
     38 H141        -2.7960    -0.1120    -1.9610 hc         1 SRL       0.039033
     39 H142        -2.5380     0.9320    -0.5570 hc         1 SRL       0.039033
     40 H143        -2.5020    -0.8260    -0.3690 hc         1 SRL       0.039033
     41 H151        -0.1800     2.0680    -1.4260 hc         1 SRL       0.039033
     42 H152        -1.2070     1.5180    -2.7570 hc         1 SRL       0.039033
     43 H153         0.4980     1.0490    -2.7030 hc         1 SRL       0.039033
     44 H161        -1.2160    -1.5350    -2.7360 hc         1 SRL       0.039033
     45 H162        -0.1430    -2.0570    -1.4300 hc         1 SRL       0.039033
     46 H163         0.4800    -1.0330    -2.7310 hc         1 SRL       0.039033
     47 H171         3.7550    -0.8880     3.1460 hc         1 SRL       0.039033
     48 H172         5.1910     0.0070     2.6320 hc         1 SRL       0.039033
     49 H173         3.7430     0.8810     3.1490 hc         1 SRL       0.039033
     50 H181         3.3790    -2.0500     0.5840 hc         1 SRL       0.039033
     51 H182         4.2340    -1.0290    -0.5800 hc         1 SRL       0.039033
     52 H183         5.0470    -1.5550     0.9010 hc         1 SRL       0.039033
     53 H191         3.4740     2.0940     0.7300 hc         1 SRL       0.039033
     54 H192         4.0640     1.0860    -0.5990 hc         1 SRL       0.039033
     55 H193         5.1210     1.4490     0.7720 hc         1 SRL       0.039033
     56 H221        -1.4040     1.2440     7.6290 h1         1 SRL       0.054575
     57 H222        -0.5870     1.8780     6.1930 h1         1 SRL       0.054575
     58 H231        -0.2350     3.3180     8.2010 hc         1 SRL       0.047533
     59 H232        -1.0660     4.1740     6.8950 hc         1 SRL       0.047533
     60 H233        -1.9820     3.5820     8.2880 hc         1 SRL       0.047533
     61 H251        -4.6700    -0.6650     6.5910 h1         1 SRL       0.054575
     62 H252        -4.8650     1.0780     6.8250 h1         1 SRL       0.054575
     63 H261        -6.6540    -0.6660     5.0940 hc         1 SRL       0.047533
     64 H262        -6.8610     1.0650     5.3890 hc         1 SRL       0.047533
     65 H263        -7.0570    -0.0880     6.7170 hc         1 SRL       0.047533
     66 H291        -4.5890     1.9970     2.5270 h1         1 SRL       0.054575
     67 H292        -4.0260     0.3230     2.6350 h1         1 SRL       0.054575
     68 H301        -4.8900     1.3970    -0.0350 hc         1 SRL       0.047533
     69 H302        -4.9460    -0.2620     0.5760 hc         1 SRL       0.047533
     70 H303        -6.1260     0.9290     1.1400 hc         1 SRL       0.047533
     71 H321        -1.9470     4.6920     2.0820 h1         1 SRL       0.054575
     72 H322        -3.5210     4.0890     1.5430 h1         1 SRL       0.054575
     73 H331        -2.9530     6.0920     3.7500 hc         1 SRL       0.047533
     74 H332        -4.5280     5.3100     3.5500 hc         1 SRL       0.047533
     75 H333        -3.8860     6.3470     2.2680 hc         1 SRL       0.047533
@<TRIPOS>BOND
     1     1     2 ar
     2     1     6 ar
     3     1    12 1
     4     2     3 ar
     5     2    11 1
     6     3     4 ar
     7     3    13 1
     8     4     5 ar
     9     4    34 1
    10     5     6 ar
    11     5     7 1
    12     6    35 1
    13     7     8 2
    14     7    36 1
    15     8     9 1
    16     8    10 1
    17     9    20 2
    18     9    21 1
    19     9    24 1
    20    10    27 2
    21    10    28 1
    22    10    31 1
    23    11    37 1
    24    12    14 1
    25    12    15 1
    26    12    16 1
    27    13    17 1
    28    13    18 1
    29    13    19 1
    30    14    38 1
    31    14    39 1
    32    14    40 1
    33    15    41 1
    34    15    42 1
    35    15    43 1
    36    16    44 1
    37    16    45 1
    38    16    46 1
    39    17    47 1
    40    17    48 1
    41    17    49 1
    42    18    50 1
    43    18    51 1
    44    18    52 1
    45    19    53 1
    46    19    54 1
    47    19    55 1
    48    21    22 1
    49    22    23 1
    50    22    56 1
    51    22    57 1
    52    23    58 1
    53    23    59 1
    54    23    60 1
    55    24    25 1
    56    25    26 1
    57    25    61 1
    58    25    62 1
    59    26    63 1
    60    26    64 1
    61    26    65 1
    62    28    29 1
    63    29    30 1
    64    29    66 1
    65    29    67 1
    66    30    68 1
    67    30    69 1
    68    30    70 1
    69    31    32 1
    70    32    33 1
    71    32    71 1
    72    32    72 1
    73    33    73 1
    74    33    74 1
    75    33    75 1
@<TRIPOS>SUBSTRUCTURE
     1 SRL         1 TEMP              0 ****  ****    0 ROOT
