@<TRIPOS>MOLECULE
SRL
   75    75     1     0     0
SMALL
bcc


@<TRIPOS>ATOM
      1 C1         -0.0330   -0.2550   -0.3190 ca        1 SRL     -0.117300
      2 C2          1.3770   -0.2250   -0.2170 ca        1 SRL      0.169100
      3 C3          2.0380    0.0540    1.0100 ca        1 SRL     -0.117300
      4 C4          1.2500    0.3020    2.1300 ca        1 SRL     -0.052500
      5 C5         -0.1520    0.3110    2.0450 ca        1 SRL     -0.179800
      6 C6         -0.7780    0.0340    0.8290 ca        1 SRL     -0.052500
      7 C7         -0.8970    0.5190    3.2830 ce        1 SRL      0.147800
      8 C8         -1.7970    1.4330    3.7390 cf        1 SRL     -0.673200
      9 P9         -2.2920    0.9220    5.2680 py        1 SRL      1.588200
     10 P10        -2.1100    2.7640    2.7470 py        1 SRL      1.588200
     11 O11         2.2060   -0.4880   -1.2810 oh        1 SRL     -0.502100
     12 C12        -0.7420   -0.5620   -1.6170 c3        1 SRL      0.000800
     13 C13         3.5440    0.0840    1.1050 c3        1 SRL      0.000800
     14 C14        -2.2470   -0.7530   -1.4180 c3        1 SRL     -0.093767
     15 C15        -0.5730    0.6160   -2.5770 c3        1 SRL     -0.093767
     16 C16        -0.1980   -1.8510   -2.2420 c3        1 SRL     -0.093767
     17 C17         4.0270    0.4140    2.5160 c3        1 SRL     -0.093767
     18 C18         4.1190   -1.2800    0.7310 c3        1 SRL     -0.093767
     19 C19         4.1020    1.1540    0.1700 c3        1 SRL     -0.093767
     20 O20        -1.6180   -0.2330    5.8580 o         1 SRL     -0.845300
     21 O21        -2.2240    2.1740    6.2740 os        1 SRL     -0.595950
     22 C22        -1.5600    1.9200    7.4980 c3        1 SRL      0.173150
     23 C23        -1.5440    3.1880    8.3140 c3        1 SRL     -0.102100
     24 O24        -3.8760    0.6830    5.1330 os        1 SRL     -0.595950
     25 C25        -4.4540    0.0490    6.2590 c3        1 SRL      0.173150
     26 C26        -5.9200   -0.1820    5.9920 c3        1 SRL     -0.102100
     27 O27        -0.9580    3.5680    2.3690 o         1 SRL     -0.845300
     28 O28        -2.9340    2.1730    1.4970 os        1 SRL     -0.595950
     29 C29        -4.3280    2.0070    1.6500 c3        1 SRL      0.173150
     30 C30        -4.8200    1.0590    0.5820 c3        1 SRL     -0.102100
     31 O31        -3.2610    3.6870    3.3930 os        1 SRL     -0.595950
     32 C32        -2.9820    5.0410    3.6830 c3        1 SRL      0.173150
     33 C33        -3.9290    5.9330    2.9080 c3        1 SRL     -0.102100
     34 HC4         1.7100    0.5170    3.1070 ha        1 SRL      0.152000
     35 HC6        -1.8810    0.0430    0.7900 ha        1 SRL      0.152000
     36 HC7        -0.5990   -0.3030    3.9970 ha        1 SRL      0.170000
     37 H11         1.6930   -0.4900   -2.1000 ho        1 SRL      0.430000
     38 H141       -2.4470   -1.5630   -0.6780 hc        1 SRL      0.041144
     39 H142       -2.7160   -1.0370   -2.3920 hc        1 SRL      0.041144
     40 H143       -2.7300    0.1940   -1.0700 hc        1 SRL      0.041144
     41 H151        0.5010    0.8670   -2.7480 hc        1 SRL      0.041144
     42 H152       -1.0730    1.5230   -2.1570 hc        1 SRL      0.041144
     43 H153       -1.0400    0.3720   -3.5610 hc        1 SRL      0.041144
     44 H161       -1.0300   -2.5430   -2.5190 hc        1 SRL      0.041144
     45 H162        0.4700   -2.3920   -1.5280 hc        1 SRL      0.041144
     46 H163        0.3780   -1.6330   -3.1750 hc        1 SRL      0.041144
     47 H171        3.6600    1.4190    2.8360 hc        1 SRL      0.041144
     48 H172        3.6820   -0.3570    3.2450 hc        1 SRL      0.041144
     49 H173        5.1440    0.4300    2.5310 hc        1 SRL      0.041144
     50 H181        3.6940   -2.0720    1.3930 hc        1 SRL      0.041144
     51 H182        3.8860   -1.5340   -0.3300 hc        1 SRL      0.041144
     52 H183        5.2290   -1.2670    0.8550 hc        1 SRL      0.041144
     53 H191        3.6630    2.1500    0.4190 hc        1 SRL      0.041144
     54 H192        3.8680    0.9140   -0.8940 hc        1 SRL      0.041144
     55 H193        5.2110    1.2120    0.2830 hc        1 SRL      0.041144
     56 H221       -2.1130    1.0930    8.0230 h1        1 SRL      0.046075
     57 H222       -0.5200    1.5620    7.2630 h1        1 SRL      0.046075
     58 H231       -2.5850    3.5390    8.5080 hc        1 SRL      0.044783
     59 H232       -1.0330    2.9940    9.2870 hc        1 SRL      0.044783
     60 H233       -1.0000    3.9950    7.7680 hc        1 SRL      0.044783
     61 H251       -3.9040   -0.9180    6.4320 h1        1 SRL      0.046075
     62 H252       -4.3000    0.7270    7.1440 h1        1 SRL      0.046075
     63 H261       -6.4350    0.7870    5.7870 hc        1 SRL      0.044783
     64 H262       -6.3860   -0.6660    6.8820 hc        1 SRL      0.044783
     65 H263       -6.0520   -0.8440    5.1030 hc        1 SRL      0.044783
     66 H291       -4.5350    1.6030    2.6800 h1        1 SRL      0.046075
     67 H292       -4.8160    3.0150    1.5480 h1        1 SRL      0.046075
     68 H301       -4.3040    0.0720    0.6640 hc        1 SRL      0.044783
     69 H302       -5.9200    0.9080    0.6980 hc        1 SRL      0.044783
     70 H303       -4.6120    1.4780   -0.4320 hc        1 SRL      0.044783
     71 H321       -3.1490    5.1790    4.7890 h1        1 SRL      0.046075
     72 H322       -1.9100    5.2710    3.4260 h1        1 SRL      0.046075
     73 H331       -4.9860    5.6290    3.0950 hc        1 SRL      0.044783
     74 H332       -3.7880    6.9900    3.2360 hc        1 SRL      0.044783
     75 H333       -3.7320    5.8660    1.8120 hc        1 SRL      0.044783
@<TRIPOS>BOND
     1    1    2 ar  
     2    1    6 ar  
     3    1   12 1   
     4    2    3 ar  
     5    2   11 1   
     6    3    4 ar  
     7    3   13 1   
     8    4    5 ar  
     9    4   34 1   
    10    5    6 ar  
    11    5    7 1   
    12    6   35 1   
    13    7    8 2   
    14    7   36 1   
    15    8    9 1   
    16    8   10 1   
    17    9   20 2   
    18    9   21 1   
    19    9   24 1   
    20   10   27 2   
    21   10   28 1   
    22   10   31 1   
    23   11   37 1   
    24   12   14 1   
    25   12   15 1   
    26   12   16 1   
    27   13   17 1   
    28   13   18 1   
    29   13   19 1   
    30   14   38 1   
    31   14   39 1   
    32   14   40 1   
    33   15   41 1   
    34   15   42 1   
    35   15   43 1   
    36   16   44 1   
    37   16   45 1   
    38   16   46 1   
    39   17   47 1   
    40   17   48 1   
    41   17   49 1   
    42   18   50 1   
    43   18   51 1   
    44   18   52 1   
    45   19   53 1   
    46   19   54 1   
    47   19   55 1   
    48   21   22 1   
    49   22   23 1   
    50   22   56 1   
    51   22   57 1   
    52   23   58 1   
    53   23   59 1   
    54   23   60 1   
    55   24   25 1   
    56   25   26 1   
    57   25   61 1   
    58   25   62 1   
    59   26   63 1   
    60   26   64 1   
    61   26   65 1   
    62   28   29 1   
    63   29   30 1   
    64   29   66 1   
    65   29   67 1   
    66   30   68 1   
    67   30   69 1   
    68   30   70 1   
    69   31   32 1   
    70   32   33 1   
    71   32   71 1   
    72   32   72 1   
    73   33   73 1   
    74   33   74 1   
    75   33   75 1   
@<TRIPOS>SUBSTRUCTURE
     1 SRL         1 TEMP              0 ****  ****    0 ROOT
