@<TRIPOS>MOLECULE
SRO
   26    27     1     0     0
SMALL
bcc


@<TRIPOS>ATOM
      1 OH           0.0000     0.0000     0.0000 oh         1 SRO      -0.493100
      2 CZ3          1.3600     0.0000     0.0000 ca         1 SRO       0.137100
      3 CH2          2.0540     0.0000     1.2080 ca         1 SRO      -0.106000
      4 CZ2          3.4300     0.0010     1.2260 ca         1 SRO      -0.056000
      5 CE2          4.1410    -0.0010     0.0310 ca         1 SRO      -0.243200
      6 NE1          5.4870    -0.0020    -0.2700 na         1 SRO       0.393600
      7 CD1          5.6590    -0.0030    -1.6270 cc         1 SRO      -0.219100
      8 CG           4.4650    -0.0030    -2.2410 cd         1 SRO      -0.236400
      9 CD2          3.4440    -0.0010    -1.1910 ca         1 SRO      -0.065800
     10 CE3          2.0470    -0.0060    -1.1970 ca         1 SRO      -0.132000
     11 CB           4.2220    -0.0020    -3.7280 c3         1 SRO       0.089800
     12 CA           4.0150     1.4350    -4.2110 c3         1 SRO      -0.064200
     13 NZ           3.7780     1.4340    -5.6600 nz         1 SRO       0.084400
     14 HOH         -0.3140     0.8870    -0.0610 ho         1 SRO       0.406000
     15 HH2          1.5050    -0.0010     2.1420 ha         1 SRO       0.127000
     16 HZ2          3.9590     0.0010     2.1720 ha         1 SRO       0.112000
     17 HNE1         6.2270    -0.0020     0.4040 hn         1 SRO       0.127700
     18 HD1          6.6180    -0.0030    -2.1320 h4         1 SRO       0.141000
     19 HE3          1.5100    -0.1370    -2.1290 ha         1 SRO       0.104000
     20 HB1          3.3380    -0.5880    -3.9490 hc         1 SRO       0.027200
     21 HB2          5.0770    -0.4340    -4.2340 hc         1 SRO       0.027200
     22 HA1          3.1600     1.8660    -3.7050 hx         1 SRO       0.087200
     23 HA2          4.8990     2.0200    -3.9900 hx         1 SRO       0.087200
     24 HNZ1         3.5790     2.3660    -5.9660 hn         1 SRO       0.220800
     25 HNZ2         3.0000     0.8410    -5.8710 hn         1 SRO       0.220800
     26 HZ3          4.5930     1.0950    -6.1320 hn         1 SRO       0.220800
@<TRIPOS>BOND
     1     1     2 1   
     2     1    14 1   
     3     2     3 ar  
     4     2    10 ar  
     5     3     4 ar  
     6     3    15 1   
     7     4     5 ar  
     8     4    16 1   
     9     5     6 1   
    10     5     9 ar  
    11     6     7 1   
    12     6    17 1   
    13     7     8 2   
    14     7    18 1   
    15     8     9 1   
    16     8    11 1   
    17     9    10 ar  
    18    10    19 1   
    19    11    12 1   
    20    11    20 1   
    21    11    21 1   
    22    12    13 1   
    23    12    22 1   
    24    12    23 1   
    25    13    24 1   
    26    13    25 1   
    27    13    26 1   
@<TRIPOS>SUBSTRUCTURE
     1 SRO         1 TEMP              0 ****  ****    0 ROOT
