@<TRIPOS>MOLECULE
molecule
   48    50     1     0     0
SMALL
bcc


@<TRIPOS>ATOM
      1 PA           0.0000     0.0000     0.0000 p5         1 SRP       1.256800
      2 O1A          1.6110     0.0000     0.0000 o          1 SRP      -0.760500
      3 O2A         -0.4940     0.0000     1.3950 o          1 SRP      -0.760500
      4 O3A         -0.5370    -1.3140    -0.7600 os         1 SRP      -0.500500
      5 O5'         -0.5350     1.3160    -0.7580 os         1 SRP      -0.533200
      6 C5'         -0.1280     2.4400     0.0250 c3         1 SRP       0.156400
      7 C4'         -0.6090     3.7290    -0.6430 c3         1 SRP       0.125100
      8 O4'         -2.0440     3.7920    -0.6090 os         1 SRP      -0.402600
      9 C3'         -0.0740     4.9510     0.1290 c3         1 SRP       0.085100
     10 O3'          0.7430     5.7650    -0.7130 oh         1 SRP      -0.575800
     11 C2'         -1.3550     5.7190     0.5510 c3         1 SRP       0.090100
     12 O2'         -1.1750     7.1280     0.4000 oh         1 SRP      -0.563800
     13 C1'         -2.4020     5.1830    -0.4600 c3         1 SRP       0.257800
     14 N9          -3.7570     5.3120     0.0810 na         1 SRP      -0.251000
     15 C8          -4.4250     4.3780     0.8140 cc         1 SRP       0.449700
     16 N7          -5.6070     4.8210     1.1310 nd         1 SRP      -0.591100
     17 C5          -5.7720     6.0660     0.6210 ca         1 SRP      -0.158200
     18 C6          -6.8110     7.0120     0.6380 ca         1 SRP       0.768200
     19 N6          -8.0010     6.7430     1.2920 nv         1 SRP      -1.073500
     20 N1          -6.6240     8.1690     0.0130 nb         1 SRP      -0.776000
     21 C2          -5.4920     8.4340    -0.6130 ca         1 SRP       0.695900
     22 N3          -4.4920     7.5790    -0.6560 nb         1 SRP      -0.738000
     23 C4          -4.5850     6.3970    -0.0540 ca         1 SRP       0.447800
     24 O            0.3200    -2.6400     0.7860 o          1 SRP      -0.483000
     25 C           -0.2980    -2.5300    -0.2470 c          1 SRP       0.685100
     26 CA          -0.8010    -3.7600    -0.9580 c3         1 SRP       0.037500
     27 N           -0.0400    -4.9330    -0.5050 nz         1 SRP      -0.797600
     28 CB          -2.2840    -3.9600    -0.6440 c3         1 SRP       0.122400
     29 OG          -2.7900    -5.0560    -1.4090 oh         1 SRP      -0.637800
     30 H5'1        -0.5600     2.3640     1.0160 h1         1 SRP       0.067700
     31 H5'2         0.9520     2.4540     0.1020 h1         1 SRP       0.067700
     32 H4'         -0.2660     3.7670    -1.6700 h1         1 SRP       0.084700
     33 H3'          0.4760     4.6300     1.0050 h1         1 SRP       0.055700
     34 H2           1.6090     5.8270    -0.3450 ho         1 SRP       0.406000
     35 H2'         -1.6380     5.4650     1.5650 h1         1 SRP       0.059700
     36 H1          -0.8990     7.5000     1.2210 ho         1 SRP       0.403000
     37 H1'         -2.3120     5.7000    -1.4070 h2         1 SRP       0.111700
     38 H8          -4.0310     3.4080     1.0920 h5         1 SRP       0.095800
     39 HN61        -8.7560     6.3100     0.7980 hn         1 SRP       0.441300
     40 HN62        -8.1120     6.9960     2.2540 hn         1 SRP       0.441300
     41 H3          -5.3820     9.3910    -1.1100 h5         1 SRP       0.061100
     42 HA          -0.6710    -3.6370    -2.0270 hx         1 SRP       0.140700
     43 HN1         -0.1130    -5.6610    -1.1870 hn         1 SRP       0.461467
     44 HN2          0.9210    -4.6820    -0.3850 hn         1 SRP       0.461467
     45 HB1         -2.8320    -3.0600    -0.8970 h1         1 SRP       0.079700
     46 HB2         -2.4040    -4.1710     0.4120 h1         1 SRP       0.079700
     47 HOG         -3.7290    -5.0860    -1.3330 ho         1 SRP       0.445000
     48 HN3         -0.4070    -5.2500     0.3710 hn         1 SRP       0.461467
@<TRIPOS>BOND
     1     1     2 1
     2     1     3 1
     3     1     4 1
     4     1     5 1
     5     4    25 1
     6     5     6 1
     7     6     7 1
     8     6    30 1
     9     6    31 1
    10     7     8 1
    11     7     9 1
    12     7    32 1
    13     8    13 1
    14     9    10 1
    15     9    11 1
    16     9    33 1
    17    10    34 1
    18    11    12 1
    19    11    13 1
    20    11    35 1
    21    12    36 1
    22    13    14 1
    23    13    37 1
    24    14    15 1
    25    14    23 1
    26    15    16 2
    27    15    38 1
    28    16    17 1
    29    17    18 ar
    30    17    23 ar
    31    18    19 1
    32    18    20 ar
    33    19    39 1
    34    19    40 1
    35    20    21 ar
    36    21    22 ar
    37    21    41 1
    38    22    23 ar
    39    24    25 2
    40    25    26 1
    41    26    27 1
    42    26    28 1
    43    26    42 1
    44    27    43 1
    45    27    44 1
    46    28    29 1
    47    28    45 1
    48    28    46 1
    49    29    47 1
    50    48    27 1
@<TRIPOS>SUBSTRUCTURE
     1 SRP         1 TEMP              0 ****  ****    0 ROOT
