@<TRIPOS>MOLECULE
molecule
   51    53     1     0     0
SMALL
bcc


@<TRIPOS>ATOM
      1 CAA          0.0000     0.0000     0.0000 c3         1 SRR      -0.100100
      2 CAB          7.4240     0.9170     5.3980 c3         1 SRR      -0.089100
      3 OAD         13.5020    -0.5640     1.3960 oh         1 SRR      -0.524100
      4 CAE          7.1600    -3.8570     0.1550 ca         1 SRR      -0.151500
      5 CAF          5.8920    -4.2970     2.1530 ca         1 SRR      -0.151500
      6 CAG         11.8460    -1.2550     2.9560 ca         1 SRR      -0.151500
      7 CAH         11.2070    -0.3870     0.8030 ca         1 SRR      -0.151500
      8 CAI          3.4550    -0.0030     3.3210 ca         1 SRR      -0.248500
      9 CAJ          4.0980    -0.0030     0.9990 ca         1 SRR      -0.248500
     10 CAK          7.7220    -2.7470     0.7510 ca         1 SRR      -0.110250
     11 CAL          6.4490    -3.1890     2.7560 ca         1 SRR      -0.110250
     12 CAM         10.5180    -1.4290     3.2850 ca         1 SRR      -0.110250
     13 CAN          9.8760    -0.5570     1.1240 ca         1 SRR      -0.110250
     14 CAO          4.7800    -0.0040     3.6940 ca         1 SRR      -0.050500
     15 CAP          5.4270    -0.0040     1.3610 ca         1 SRR      -0.050500
     16 CAQ          1.5300     0.0000     0.0000 c3         1 SRR       0.237400
     17 CAR          7.7510     1.1370     3.9200 c3         1 SRR      -0.040200
     18 OAS          2.0070     0.0000     1.3470 os         1 SRR      -0.435900
     19 CAT          7.1970    -0.0050     3.1080 ce         1 SRR      -0.016400
     20 CAU          7.9830    -1.0700     2.8110 cf         1 SRR      -0.027400
     21 CAV          6.2460    -4.6330     0.8520 ca         1 SRR       0.097100
     22 CAW         12.1930    -0.7340     1.7160 ca         1 SRR       0.097100
     23 CAX          3.1090    -0.0020     1.9750 ca         1 SRR       0.276100
     24 CAY          5.7800    -0.0050     2.7160 ca         1 SRR      -0.131800
     25 CAZ          7.3680    -2.4060     2.0570 ca         1 SRR      -0.052300
     26 CBA          9.5230    -1.0800     2.3690 ca         1 SRR      -0.052300
     27 HAA         -0.3610    -0.0120    -1.0210 hc         1 SRR       0.053033
     28 HAAA        -0.3610     0.8900     0.5000 hc         1 SRR       0.053033
     29 HAAB        -0.3610    -0.8790     0.5210 hc         1 SRR       0.053033
     30 HAB          8.2630     1.2340     6.0050 hc         1 SRR       0.036700
     31 HABA         6.5470     1.4960     5.6640 hc         1 SRR       0.036700
     32 HABB         7.2290    -0.1340     5.5730 hc         1 SRR       0.036700
     33 HOAC         6.2530    -6.4730     0.3980 ho         1 SRR       0.417000
     34 HOAD        13.8290    -1.3460     0.9830 ho         1 SRR       0.417000
     35 HAE          7.4340    -4.1230    -0.8590 ha         1 SRR       0.139500
     36 HAF          5.1780    -4.9060     2.6940 ha         1 SRR       0.139500
     37 HAG         12.6190    -1.5260     3.6650 ha         1 SRR       0.139500
     38 HAH         11.4830     0.0190    -0.1630 ha         1 SRR       0.139500
     39 HAI          2.6800    -0.0020     4.0780 ha         1 SRR       0.136500
     40 HAJ          3.8240    -0.0030    -0.0490 ha         1 SRR       0.136500
     41 HAK          8.4360    -2.1410     0.2060 ha         1 SRR       0.138500
     42 HAL          6.1720    -2.9270     3.7700 ha         1 SRR       0.138500
     43 HAM         10.2470    -1.8360     4.2520 ha         1 SRR       0.138500
     44 HAN          9.1070    -0.2850     0.4110 ha         1 SRR       0.138500
     45 HAO          5.0480    -0.0050     4.7440 ha         1 SRR       0.133000
     46 HAP          6.1970    -0.0050     0.5990 ha         1 SRR       0.133000
     47 HAQ          1.8910     0.8840    -0.5110 h1         1 SRR       0.033700
     48 HAQA         1.8910    -0.8840    -0.5110 h1         1 SRR       0.033700
     49 HAR          8.8260     1.1840     3.7910 hc         1 SRR       0.054200
     50 HARA         7.3070     2.0670     3.5860 hc         1 SRR       0.054200
     51 OAC          5.6940    -5.7270     0.2610 oh         1 SRR      -0.524100
@<TRIPOS>BOND
     1     1    16 1
     2     2    17 1
     3    51    21 1
     4     3    22 1
     5     4    10 ar
     6     4    21 ar
     7     5    11 ar
     8     5    21 ar
     9     6    12 ar
    10     6    22 ar
    11     7    13 ar
    12     7    22 ar
    13     8    14 ar
    14     8    23 ar
    15     9    15 ar
    16     9    23 ar
    17    10    25 ar
    18    11    25 ar
    19    12    26 ar
    20    13    26 ar
    21    14    24 ar
    22    15    24 ar
    23    16    18 1
    24    17    19 1
    25    18    23 1
    26    19    20 2
    27    19    24 1
    28    20    25 1
    29    20    26 1
    30     1    27 1
    31     1    28 1
    32     1    29 1
    33     2    30 1
    34     2    31 1
    35     2    32 1
    36    51    33 1
    37     3    34 1
    38     4    35 1
    39     5    36 1
    40     6    37 1
    41     7    38 1
    42     8    39 1
    43     9    40 1
    44    10    41 1
    45    11    42 1
    46    12    43 1
    47    13    44 1
    48    14    45 1
    49    15    46 1
    50    16    47 1
    51    16    48 1
    52    17    49 1
    53    17    50 1
@<TRIPOS>SUBSTRUCTURE
     1 SRR         1 TEMP              0 ****  ****    0 ROOT
