@<TRIPOS>MOLECULE
SRR
   51    48     1     0     0
SMALL
bcc


@<TRIPOS>ATOM
      1 CAA         3.1380   -0.1770   -1.1220 c3        1 SRR     -0.239000
      2 CAB         7.8450    1.9100    5.7510 c3        1 SRR     -0.207000
      3 OAD        10.0280   -2.0900   -0.1240 oh        1 SRR     -0.315000
      4 CAE         7.2290   -5.4340   -0.3750 c1        1 SRR     -0.166000
      5 CAF         5.6440   -4.0090    3.1710 c1        1 SRR     -0.118000
      6 CAG        11.4940   -0.2840    0.3760 c1        1 SRR     -0.207000
      7 CAH        10.3100   -1.4010    2.1330 c1        1 SRR     -0.205000
      8 CAI         0.7350    0.1130    2.6470 c2        1 SRR     -0.569000
      9 CAJ         5.5440    1.3740    2.0790 c1        1 SRR      0.132000
     10 CAK         8.4390   -4.9840   -0.9760 c3        1 SRR     -0.102000
     11 CAL         6.2950   -3.1680    3.7650 c1        1 SRR     -0.156000
     12 CAM        11.9760    0.7430   -0.0010 c1        1 SRR     -0.171000
     13 CAN         9.7990   -1.3040    3.2100 c1        1 SRR     -0.114000
     14 CAO        -0.5120   -0.0030    2.2440 c1        1 SRR      0.275000
     15 CAP         4.9760    0.6790    3.0280 c2        1 SRR     -0.487000
     16 CAQ         2.8660    0.9820   -0.1970 c3        1 SRR     -0.006000
     17 CAR         7.7000    1.3740    4.3470 c3        1 SRR     -0.133000
     18 OAS         1.6930    0.6670    0.6020 os        1 SRR     -0.214000
     19 CAT         7.0120    0.0530    4.3150 c2        1 SRR     -0.113000
     20 CAU         7.6790   -1.1250    4.3950 c2        1 SRR     -0.067000
     21 CAV         6.2170   -5.8120    0.1360 c1        1 SRR     -0.099000
     22 CAW        10.9330   -1.5430    0.8310 c3        1 SRR      0.265000
     23 CAX         1.9370    0.4300    1.8840 c1        1 SRR      0.056000
     24 CAY         5.5190    0.1010    4.2770 c3        1 SRR     -0.038000
     25 CAZ         7.0620   -2.3850    4.5240 c1        1 SRR      0.011000
     26 CBA         9.1820   -1.2080    4.5010 c3        1 SRR     -0.010000
     27 HAA         3.4320   -1.0840   -0.5400 hc        1 SRR      0.093000
     28 HAAA        2.2310   -0.4220   -1.7250 hc        1 SRR      0.093000
     29 HAAB        3.9720    0.0950   -1.8130 hc        1 SRR      0.093000
     30 HAB         6.8460    2.0210    6.2360 hc        1 SRR      0.075333
     31 HABA        8.4640    1.2210    6.3760 hc        1 SRR      0.075333
     32 HABB        8.3420    2.9100    5.7290 hc        1 SRR      0.075333
     33 HOAC        4.8180   -6.9990    0.3730 ho        1 SRR      0.229000
     34 HOAD        9.2780   -1.4870   -0.2020 ho        1 SRR      0.213000
     35 HAE         9.2380   -5.7660   -0.8850 hc        1 SRR      0.100667
     36 HAF         5.0900   -4.7440    2.6370 ha        1 SRR      0.244000
     37 HAG        12.4050    1.6530   -0.3370 ha        1 SRR      0.225000
     38 HAH        11.7570   -2.3240    0.8880 h1        1 SRR      0.143000
     39 HAI         0.9840   -0.0460    3.7200 ha        1 SRR      0.216000
     40 HAJ         3.8740    0.4880    2.8690 ha        1 SRR      0.241000
     41 HAK         8.2810   -4.7630   -2.0640 hc        1 SRR      0.100667
     42 HAL         8.8040   -4.0480   -0.4730 hc        1 SRR      0.100667
     43 HAM         9.4620   -2.1130    5.1160 hc        1 SRR      0.122000
     44 HAN         9.5750   -0.3040    5.0470 hc        1 SRR      0.122000
     45 HAO         5.1590    0.7230    5.1450 hc        1 SRR      0.095500
     46 HAP         5.0910   -0.9320    4.4100 hc        1 SRR      0.095500
     47 HAQ         3.7420    1.1970    0.4710 h1        1 SRR      0.109500
     48 HAQA        2.5650    1.9050   -0.7590 h1        1 SRR      0.109500
     49 HAR         7.1080    2.1090    3.7310 hc        1 SRR      0.095500
     50 HARA        8.7120    1.2960    3.8650 hc        1 SRR      0.095500
     51 OAC         5.0950   -6.1460    0.7600 oh        1 SRR     -0.163000
@<TRIPOS>BOND
     1    1   16 1   
     2    1   27 1   
     3    1   28 1   
     4    1   29 1   
     5    2   17 1   
     6    2   30 1   
     7    2   31 1   
     8    2   32 1   
     9    3   22 1   
    10    3   34 1   
    11    4   10 1   
    12    4   21 1   
    13    5   11 1   
    14    5   36 1   
    15    6   12 1   
    16    6   22 1   
    17    7   13 1   
    18    7   22 1   
    19    8   14 1   
    20    8   23 1   
    21    8   39 1   
    22    9   15 1   
    23   10   35 1   
    24   10   41 1   
    25   10   42 1   
    26   11   25 1   
    27   12   37 1   
    28   13   26 1   
    29   15   24 1   
    30   15   40 1   
    31   16   18 1   
    32   16   47 1   
    33   16   48 1   
    34   17   19 1   
    35   17   49 1   
    36   17   50 1   
    37   18   23 1   
    38   19   20 1   
    39   19   24 1   
    40   20   25 1   
    41   20   26 1   
    42   21   51 1   
    43   22   38 1   
    44   24   45 1   
    45   24   46 1   
    46   26   43 1   
    47   26   44 1   
    48   33   51 1   
@<TRIPOS>SUBSTRUCTURE
     1 SRR         1 TEMP              0 ****  ****    0 ROOT
