@<TRIPOS>MOLECULE
SRS
   74    76     1     0     0
SMALL
bcc


@<TRIPOS>ATOM
      1 S1          0.5760   -0.4800    1.7820 s6        1 SRS      1.646900
      2 N5          1.8320   -1.4310    1.7600 n3        1 SRS     -1.044400
      3 N6          0.6420    0.6750    2.4230 n2        1 SRS     -1.098900
      4 C2          0.0640   -0.3690    0.1140 c3        1 SRS     -0.257600
      5 C3          0.3060    0.8840   -0.7100 c3        1 SRS     -0.090700
      6 C4          1.7960    1.2230   -0.7330 c         1 SRS      0.664100
      7 O3          2.5630    0.7680    0.1440 o         1 SRS     -0.649100
      8 N2          2.2720    2.0720   -1.7220 n         1 SRS     -0.557900
      9 C5          3.6860    2.1860   -1.9660 c3        1 SRS      0.032700
     10 C6          4.2650    3.5200   -1.4580 c         1 SRS      0.524100
     11 O4          5.2590    3.6230   -0.7590 o         1 SRS     -0.396100
     12 N3          3.5910    4.7870   -1.9110 n4        1 SRS     -0.673800
     13 C7          4.0510    6.0060   -1.1750 c3        1 SRS      0.101800
     14 C8          3.5860    7.3090   -1.8100 c3        1 SRS     -0.110400
     15 C9          4.2320    7.5850   -3.1540 c3        1 SRS     -0.103400
     16 C10         3.3150    7.2710   -4.3220 c3        1 SRS     -0.088400
     17 C11         4.0930    6.9800   -5.5900 c3        1 SRS     -0.106400
     18 C12         3.4270    5.9390   -6.4900 c3        1 SRS      0.023300
     19 N4          3.2060    4.6570   -5.8670 na        1 SRS     -0.038400
     20 C13        -0.4970    2.1080   -0.2900 c3        1 SRS     -0.089400
     21 C14        -2.0010    1.8770   -0.2120 c3        1 SRS     -0.061700
     22 C15        -2.6800    3.1660    0.2130 c3        1 SRS     -0.101600
     23 C16        -2.5740    1.3940   -1.5270 c3        1 SRS     -0.101600
     24 C17         4.1020    2.0010   -3.4440 c3        1 SRS     -0.022200
     25 C18         3.4630    2.9330   -4.3730 cc        1 SRS     -0.243400
     26 C19         4.0840    4.0340   -4.9880 cd        1 SRS     -0.111100
     27 C20         2.1350    2.8350   -4.9390 ca        1 SRS     -0.104800
     28 C21         1.9930    3.9500   -5.8490 ca        1 SRS     -0.050200
     29 C22         1.0910    1.9090   -4.8280 ca        1 SRS     -0.136000
     30 C23         0.8050    4.1460   -6.5760 ca        1 SRS     -0.111000
     31 C24        -0.0690    2.1110   -5.5560 ca        1 SRS     -0.120000
     32 C25        -0.2130    3.2230   -6.4100 ca        1 SRS     -0.098000
     33 C26        -0.6490   -1.5190    2.3410 c3        1 SRS     -0.356300
     34 HN5         2.7080   -1.1680    1.3540 hn        1 SRS      0.338200
     35 HN6         0.7820    1.5000    2.9110 hn        1 SRS      0.600400
     36 H21        -1.0510   -0.5500    0.0650 h1        1 SRS      0.145200
     37 H22A        0.5160   -1.2260   -0.4660 h1        1 SRS      0.145200
     38 H3         -0.0100    0.6250   -1.7690 hc        1 SRS      0.105700
     39 HN2         1.6720    2.2710   -2.4990 hn        1 SRS      0.345500
     40 H5          4.2360    1.3990   -1.3490 h1        1 SRS      0.144700
     41 HN3         2.5770    4.6910   -1.8030 hn        1 SRS      0.466800
     42 H71         3.6640    5.9290   -0.1190 hx        1 SRS      0.112700
     43 H72         5.1810    5.9810   -1.1380 hx        1 SRS      0.112700
     44 H81         2.4670    7.3380   -1.8940 hc        1 SRS      0.088700
     45 H82         3.8770    8.1210   -1.0850 hc        1 SRS      0.088700
     46 H91         5.1910    7.0070   -3.2390 hc        1 SRS      0.068700
     47 H92         4.5160    8.6710   -3.2050 hc        1 SRS      0.068700
     48 H101        2.6490    6.4070   -4.0570 hc        1 SRS      0.044700
     49 H102        2.6290    8.1430   -4.4970 hc        1 SRS      0.044700
     50 H111        4.1920    7.9220   -6.1950 hc        1 SRS      0.072700
     51 H112        5.1370    6.6440   -5.3460 hc        1 SRS      0.072700
     52 H121        2.4300    6.3310   -6.8420 h1        1 SRS      0.087200
     53 H122        4.0820    5.7780   -7.3970 h1        1 SRS      0.087200
     54 H131       -0.1350    2.4950    0.6980 hc        1 SRS      0.059700
     55 H132       -0.3110    2.9190   -1.0470 hc        1 SRS      0.059700
     56 H14        -2.2100    1.1020    0.5790 hc        1 SRS      0.030700
     57 H151       -3.7780    2.9960    0.3360 hc        1 SRS      0.050200
     58 H152       -2.5330    3.9610   -0.5570 hc        1 SRS      0.050200
     59 H153       -2.2670    3.5280    1.1850 hc        1 SRS      0.050200
     60 H161       -3.6890    1.3450   -1.4620 hc        1 SRS      0.050200
     61 H162       -2.1950    0.3750   -1.7800 hc        1 SRS      0.050200
     62 H163       -2.3050    2.0920   -2.3560 hc        1 SRS      0.050200
     63 H171        3.8470    0.9430   -3.7370 hc        1 SRS      0.095700
     64 H172        5.2220    2.0970   -3.4920 hc        1 SRS      0.095700
     65 H19         5.1230    4.3710   -4.9040 h4        1 SRS      0.182000
     66 H22         1.2150    1.0020   -4.2190 ha        1 SRS      0.119000
     67 H23         0.6960    4.9900   -7.2720 ha        1 SRS      0.159000
     68 H24        -0.8910    1.3810   -5.4950 ha        1 SRS      0.148000
     69 H25        -1.1530    3.3440   -6.9750 ha        1 SRS      0.162000
     70 H261       -0.7920   -2.4400    1.7160 h1        1 SRS      0.157700
     71 H262       -0.4830   -1.8900    3.3900 h1        1 SRS      0.157700
     72 H263       -1.6570   -1.0200    2.3770 h1        1 SRS      0.157700
     73 H221        1.8860   -2.3180    2.2100 hn        1 SRS      0.338200
     74 H32         3.7830    4.9040   -2.9250 hn        1 SRS      0.466800
@<TRIPOS>BOND
     1    1    2 2
     2    1    3 2
     3    1    4 1
     4    1   33 1
     5    2   34 1
     6    2   73 1
     7    3   35 1
     8    4    5 1
     9    4   36 1
    10    4   37 1
    11    5    6 1
    12    5   20 1
    13    5   38 1
    14    6    7 2
    15    6    8 1
    16    8    9 1
    17    8   39 1
    18    9   10 1
    19    9   24 1
    20    9   40 1
    21   10   11 2
    22   10   12 1
    23   12   13 1
    24   12   41 1
    25   12   74 1
    26   13   14 1
    27   13   42 1
    28   13   43 1
    29   14   15 1
    30   14   44 1
    31   14   45 1
    32   15   16 1
    33   15   46 1
    34   15   47 1
    35   16   17 1
    36   16   48 1
    37   16   49 1
    38   17   18 1
    39   17   50 1
    40   17   51 1
    41   18   19 1
    42   18   52 1
    43   18   53 1
    44   19   26 1
    45   19   28 1
    46   20   21 1
    47   20   54 1
    48   20   55 1
    49   21   22 1
    50   21   23 1
    51   21   56 1
    52   22   57 1
    53   22   58 1
    54   22   59 1
    55   23   60 1
    56   23   61 1
    57   23   62 1
    58   24   25 1
    59   24   63 1
    60   24   64 1
    61   25   26 2
    62   25   27 1
    63   26   65 1
    64   27   28 ar
    65   27   29 ar
    66   28   30 ar
    67   29   31 ar
    68   29   66 1
    69   30   32 ar
    70   30   67 1
    71   31   32 ar
    72   31   68 1
    73   32   69 1
    74   33   70 1
    75   33   71 1
    76   33   72 1
@<TRIPOS>SUBSTRUCTURE
     1 SRS         1 TEMP              0 ****  ****    0 ROOT
