@<TRIPOS>MOLECULE
molecule
   14    13     1     0     0
SMALL
bcc


@<TRIPOS>ATOM
      1 O1           0.0000     0.0000     0.0000 o          1 SRT      -0.871550
      2 O11          1.9470    -0.0170    -1.0460 o          1 SRT      -0.871550
      3 C1           1.3430     0.0000     0.0000 c          1 SRT       0.870100
      4 C2           2.0960     0.0000     1.3040 c3         1 SRT       0.066100
      5 O2           3.4960    -0.1170     1.0460 oh         1 SRT      -0.574300
      6 C3           1.8220     1.3060     2.0520 c3         1 SRT       0.066100
      7 O3           0.4220     1.4230     2.3110 oh         1 SRT      -0.574300
      8 C4           2.5750     1.3060     3.3570 c          1 SRT       0.870100
      9 O4           1.9710     1.3050     4.4030 o          1 SRT      -0.871550
     10 O41          3.9180     1.3060     3.3570 o          1 SRT      -0.871550
     11 H2           1.7700    -0.8370     1.9090 h1         1 SRT       0.020700
     12 HA           3.7260    -1.0280     0.9650 ho         1 SRT       0.360000
     13 H3           2.1480     2.1440     1.4480 h1         1 SRT       0.020700
     14 HB           0.1920     2.3340     2.3920 ho         1 SRT       0.360000
@<TRIPOS>BOND
     1     1     3 1
     2     2     3 1
     3     3     4 1
     4     4     5 1
     5     4     6 1
     6     4    11 1
     7     5    12 1
     8     6     7 1
     9     6     8 1
    10     6    13 1
    11     7    14 1
    12     8     9 1
    13     8    10 1
@<TRIPOS>SUBSTRUCTURE
     1 SRT         1 TEMP              0 ****  ****    0 ROOT
