@<TRIPOS>MOLECULE
SRT
   14    13     1     0     0
SMALL
bcc


@<TRIPOS>ATOM
      1 O1         -0.1390   -0.1080    0.4490 o         1 SRT     -0.871550
      2 O11         1.6230   -0.4260   -0.8770 o         1 SRT     -0.871550
      3 C1          1.1090   -0.1900    0.2620 c         1 SRT      0.895600
      4 C2          2.0730   -0.0450    1.4610 c3        1 SRT      0.018600
      5 O2          3.3590   -0.5450    1.1120 oh        1 SRT     -0.635800
      6 C3          2.2000    1.4020    1.9700 c3        1 SRT      0.018600
      7 O3          1.0360    2.1640    1.6800 oh        1 SRT     -0.635800
      8 C4          2.4860    1.4640    3.4910 c         1 SRT      0.895600
      9 O4          1.6450    0.9720    4.3020 o         1 SRT     -0.871550
     10 O41         3.5510    2.0340    3.8770 o         1 SRT     -0.871550
     11 H2          1.7170   -0.6950    2.3070 h1        1 SRT      0.054200
     12 HA          3.4560   -0.4030    0.1590 ho        1 SRT      0.410000
     13 H3          3.0290    1.9250    1.4180 h1        1 SRT      0.054200
     14 HB          0.2810    1.5950    1.8860 ho        1 SRT      0.410000
@<TRIPOS>BOND
     1    1    3 1   
     2    2    3 1   
     3    3    4 1   
     4    4    5 1   
     5    4    6 1   
     6    4   11 1   
     7    5   12 1   
     8    6    7 1   
     9    6    8 1   
    10    6   13 1   
    11    7   14 1   
    12    8    9 1   
    13    8   10 1   
@<TRIPOS>SUBSTRUCTURE
     1 SRT         1 TEMP              0 ****  ****    0 ROOT
