@<TRIPOS>MOLECULE
SS0
   53    55     1     0     0
SMALL
bcc


@<TRIPOS>ATOM
      1 C            0.0000     0.0000     0.0000 c3         1 SS0       0.178600
      2 N            1.4690     0.0000     0.0000 n3         1 SS0      -0.543600
      3 O            7.6960    -3.9240     2.7790 os         1 SS0      -0.305900
      4 C01          7.6650    -2.5650     2.7560 ca         1 SS0       0.156100
      5 N01          7.4160     1.5440     2.6770 nc         1 SS0      -0.554100
      6 C02          8.8780    -1.8770     2.7200 ca         1 SS0      -0.146000
      7 N02          5.4980     0.4890     2.7350 na         1 SS0       0.279700
      8 C03          8.9070    -0.5020     2.6930 ca         1 SS0      -0.019000
      9 C04          7.7100     0.2160     2.6990 ca         1 SS0       0.054400
     10 N04          2.9440    -4.3430     1.9230 n3         1 SS0      -0.551600
     11 C05          6.4900    -0.4770     2.7370 ca         1 SS0      -0.217200
     12 C06          6.4730    -1.8660     2.7680 ca         1 SS0      -0.163300
     13 C07          6.1170     1.7070     2.6990 cd         1 SS0       0.316700
     14 C08          5.1450    -2.5770     2.8190 c3         1 SS0       0.033900
     15 C09          5.3250    -4.0410     2.4090 c3         1 SS0      -0.097700
     16 C10          6.5160    -4.6150     3.1900 c3         1 SS0       0.217400
     17 C11          4.0600    -4.8310     2.7470 c3         1 SS0       0.156800
     18 C12          4.0530     0.2510     2.7670 c3         1 SS0      -0.050700
     19 C13          3.0560    -4.8320     0.5420 c3         1 SS0       0.180100
     20 C14          1.6520    -4.7180     2.5110 c3         1 SS0       0.180100
     21 C15          3.5040     0.2500     1.3390 c3         1 SS0      -0.058400
     22 C16          1.9950     0.0000     1.3720 c3         1 SS0       0.153800
     23 C17          1.9950    -1.1390    -0.7640 c3         1 SS0       0.178600
     24 H           -0.3610     0.0050    -1.0210 h1         1 SS0       0.003033
     25 HA          -0.3610     0.8820     0.5150 h1         1 SS0       0.003033
     26 HB          -0.3610    -0.8870     0.5070 h1         1 SS0       0.003033
     27 H02          9.8080    -2.4320     2.7140 ha         1 SS0       0.115000
     28 H03          9.8500     0.0180     2.5740 ha         1 SS0       0.110000
     29 HN03         4.7820     3.1330     3.3830 hn         1 SS0       0.273300
     30 HN0A         5.7170     3.6160     2.0070 hn         1 SS0       0.273300
     31 H08          4.4540    -2.0960     2.1370 hc         1 SS0       0.031200
     32 H08A         4.7540    -2.5330     3.8280 hc         1 SS0       0.031200
     33 H09          5.5260    -4.0990     1.3460 hc         1 SS0       0.050700
     34 H10          6.6190    -5.6710     2.9730 h1         1 SS0       0.014200
     35 H10A         6.3600    -4.4680     4.2520 h1         1 SS0       0.014200
     36 H11          4.2250    -5.8830     2.5440 h1         1 SS0       0.013200
     37 H11A         3.8200    -4.6990     3.7950 h1         1 SS0       0.013200
     38 H12          3.5700     1.0340     3.3390 h1         1 SS0       0.039700
     39 H12A         3.8550    -0.7080     3.2310 h1         1 SS0       0.039700
     40 H13          2.1070    -4.7040     0.0360 h1         1 SS0       0.002533
     41 H13A         3.8220    -4.2700     0.0210 h1         1 SS0       0.002533
     42 H13B         3.3220    -5.8820     0.5510 h1         1 SS0       0.002533
     43 H14          0.8580    -4.4960     1.8100 h1         1 SS0       0.002533
     44 H14A         1.6510    -5.7780     2.7340 h1         1 SS0       0.002533
     45 H14B         1.4950    -4.1570     3.4250 h1         1 SS0       0.002533
     46 H15          3.9870    -0.5330     0.7660 hc         1 SS0       0.037200
     47 H15A         3.7010     1.2090     0.8760 hc         1 SS0       0.037200
     48 H16          1.7980    -0.9600     1.8340 h1         1 SS0       0.011200
     49 H16A         1.5120     0.7830     1.9440 h1         1 SS0       0.011200
     50 H17          1.8580    -2.0500    -0.1950 h1         1 SS0       0.003033
     51 H17A         3.0510    -0.9880    -0.9560 h1         1 SS0       0.003033
     52 H17B         1.4650    -1.2180    -1.7060 h1         1 SS0       0.003033
     53 N03          5.4700     2.9250     2.6870 nv         1 SS0      -0.526800
@<TRIPOS>BOND
     1     1     2 1   
     2     1    24 1   
     3     1    25 1   
     4     1    26 1   
     5     2    22 1   
     6     2    23 1   
     7     3     4 1   
     8     3    16 1   
     9     4     6 ar  
    10     4    12 ar  
    11     5     9 1   
    12     5    13 2   
    13     6     8 ar  
    14     6    27 1   
    15     7    11 1   
    16     7    13 1   
    17     7    18 1   
    18     8     9 ar  
    19     8    28 1   
    20     9    11 ar  
    21    10    17 1   
    22    10    19 1   
    23    10    20 1   
    24    11    12 ar  
    25    12    14 1   
    26    13    53 1   
    27    14    15 1   
    28    14    31 1   
    29    14    32 1   
    30    15    16 1   
    31    15    17 1   
    32    15    33 1   
    33    16    34 1   
    34    16    35 1   
    35    17    36 1   
    36    17    37 1   
    37    18    21 1   
    38    18    38 1   
    39    18    39 1   
    40    19    40 1   
    41    19    41 1   
    42    19    42 1   
    43    20    43 1   
    44    20    44 1   
    45    20    45 1   
    46    21    22 1   
    47    21    46 1   
    48    21    47 1   
    49    22    48 1   
    50    22    49 1   
    51    23    50 1   
    52    23    51 1   
    53    23    52 1   
    54    29    53 1   
    55    30    53 1   
@<TRIPOS>SUBSTRUCTURE
     1 SS0         1 TEMP              0 ****  ****    0 ROOT
