@<TRIPOS>MOLECULE
SS1
   19    19     1     0     0
SMALL
bcc


@<TRIPOS>ATOM
      1 O1         -0.0260    0.1390    0.0360 oh        1 SS1     -0.599800
      2 C1          1.3850   -0.0660    0.0430 c3        1 SS1      0.187400
      3 C2          1.8650   -0.0040    1.4630 ca        1 SS1     -0.084300
      4 C3          3.1330   -0.5140    1.7690 ca        1 SS1     -0.114500
      5 C4          3.6090   -0.4660    3.0770 ca        1 SS1     -0.133000
      6 C5          2.8230    0.0880    4.0880 ca        1 SS1     -0.128000
      7 C6          1.5590    0.5930    3.7870 ca        1 SS1     -0.133000
      8 C7          1.0790    0.5490    2.4780 ca        1 SS1     -0.114500
      9 C8          2.0860    0.9710   -0.8220 c3        1 SS1     -0.129100
     10 HO1        -0.2890    0.1980   -0.8900 ho        1 SS1      0.402000
     11 H1          1.5940   -1.0990   -0.3680 h1        1 SS1      0.038700
     12 H3          3.7520   -0.9540    0.9740 ha        1 SS1      0.140000
     13 H4          4.6060   -0.8670    3.3120 ha        1 SS1      0.130500
     14 H5          3.2000    0.1240    5.1200 ha        1 SS1      0.130000
     15 H6          0.9350    1.0270    4.5820 ha        1 SS1      0.130500
     16 H7          0.0780    0.9400    2.2370 ha        1 SS1      0.140000
     17 H81         1.7780    0.8540   -1.8890 hc        1 SS1      0.045367
     18 H82         1.8190    2.0010   -0.4850 hc        1 SS1      0.045367
     19 H83         3.1920    0.8420   -0.7490 hc        1 SS1      0.045367
@<TRIPOS>BOND
     1    1    2 1   
     2    1   10 1   
     3    2    3 1   
     4    2    9 1   
     5    2   11 1   
     6    3    4 ar  
     7    3    8 ar  
     8    4    5 ar  
     9    4   12 1   
    10    5    6 ar  
    11    5   13 1   
    12    6    7 ar  
    13    6   14 1   
    14    7    8 ar  
    15    7   15 1   
    16    8   16 1   
    17    9   17 1   
    18    9   18 1   
    19    9   19 1   
@<TRIPOS>SUBSTRUCTURE
     1 SS1         1 TEMP              0 ****  ****    0 ROOT
