@<TRIPOS>MOLECULE
molecule
   19    19     1     0     0
SMALL
bcc


@<TRIPOS>ATOM
      1 O1           0.0000     0.0000     0.0000 oh         1 SS1      -0.604800
      2 C1           1.4290     0.0000     0.0000 c3         1 SS1       0.192400
      3 C2           1.9320     0.0000     1.4200 ca         1 SS1      -0.097300
      4 C3           3.0870    -0.6870     1.7450 ca         1 SS1      -0.111500
      5 C4           3.5490    -0.6880     3.0470 ca         1 SS1      -0.132000
      6 C5           2.8540    -0.0010     4.0270 ca         1 SS1      -0.127000
      7 C6           1.7000     0.6860     3.7020 ca         1 SS1      -0.132000
      8 C7           1.2410     0.6900     2.3990 ca         1 SS1      -0.111500
      9 C8           1.9390     1.2500    -0.7210 c3         1 SS1      -0.110100
     10 HO1         -0.3140    -0.6750    -0.5790 ho         1 SS1       0.402000
     11 H1           1.7910    -0.8840    -0.5110 h1         1 SS1       0.034700
     12 H3           3.6300    -1.2250     0.9770 ha         1 SS1       0.136000
     13 H4           4.4540    -1.2260     3.3010 ha         1 SS1       0.129500
     14 H5           3.2150    -0.0030     5.0480 ha         1 SS1       0.128000
     15 H6           1.1570     1.2250     4.4690 ha         1 SS1       0.129500
     16 H7           0.3360     1.2290     2.1450 ha         1 SS1       0.136000
     17 H81          1.0990     1.8780    -0.9930 hc         1 SS1       0.046033
     18 H82          2.6030     1.8000    -0.0650 hc         1 SS1       0.046033
     19 H83          2.4750     0.9580    -1.6160 hc         1 SS1       0.046033
@<TRIPOS>BOND
     1     1     2 1
     2     1    10 1
     3     2     3 1
     4     2     9 1
     5     2    11 1
     6     3     4 ar
     7     3     8 ar
     8     4     5 ar
     9     4    12 1
    10     5     6 ar
    11     5    13 1
    12     6     7 ar
    13     6    14 1
    14     7     8 ar
    15     7    15 1
    16     8    16 1
    17     9    17 1
    18     9    18 1
    19     9    19 1
@<TRIPOS>SUBSTRUCTURE
     1 SS1         1 TEMP              0 ****  ****    0 ROOT
