@<TRIPOS>MOLECULE
SS2
   19    19     1     0     0
SMALL
bcc


@<TRIPOS>ATOM
      1 O1          0.0820   -0.0900   -0.2120 oh        1 SS2     -0.599800
      2 C1          1.4960    0.0000   -0.0670 c3        1 SS2      0.186400
      3 C2          1.9170   -0.0020    1.3740 ca        1 SS2     -0.129300
      4 C3          1.1530   -0.6650    2.3400 ca        1 SS2     -0.119500
      5 C4          1.5560   -0.6660    3.6740 ca        1 SS2     -0.130500
      6 C5          2.7270   -0.0080    4.0510 ca        1 SS2     -0.126000
      7 C6          3.4940    0.6520    3.0910 ca        1 SS2     -0.130500
      8 C7          3.0900    0.6580    1.7560 ca        1 SS2     -0.119500
      9 C8          2.0780   -1.1890   -0.8160 c3        1 SS2     -0.087100
     10 HO1        -0.3010    0.6040    0.3380 ho        1 SS2      0.403000
     11 H1          1.8430    0.9600   -0.5520 h1        1 SS2      0.036700
     12 H3          0.2320   -1.1870    2.0340 ha        1 SS2      0.138000
     13 H4          0.9510   -1.1890    4.4290 ha        1 SS2      0.132500
     14 H5          3.0460   -0.0110    5.1040 ha        1 SS2      0.132000
     15 H6          4.4180    1.1710    3.3860 ha        1 SS2      0.132500
     16 H7          3.6960    1.1800    1.0010 ha        1 SS2      0.138000
     17 H81         3.1910   -1.1410   -0.7810 hc        1 SS2      0.047367
     18 H82         1.7340   -2.1430   -0.3520 hc        1 SS2      0.047367
     19 H83         1.7370   -1.1670   -1.8780 hc        1 SS2      0.047367
@<TRIPOS>BOND
     1    1    2 1   
     2    1   10 1   
     3    2    3 1   
     4    2    9 1   
     5    2   11 1   
     6    3    4 ar  
     7    3    8 ar  
     8    4    5 ar  
     9    4   12 1   
    10    5    6 ar  
    11    5   13 1   
    12    6    7 ar  
    13    6   14 1   
    14    7    8 ar  
    15    7   15 1   
    16    8   16 1   
    17    9   17 1   
    18    9   18 1   
    19    9   19 1   
@<TRIPOS>SUBSTRUCTURE
     1 SS2         1 TEMP              0 ****  ****    0 ROOT
