@<TRIPOS>MOLECULE
molecule
   19    19     1     0     0
SMALL
bcc


@<TRIPOS>ATOM
      1 O1           0.0000     0.0000     0.0000 oh         1 SS2      -0.603800
      2 C1           1.4290     0.0000     0.0000 c3         1 SS2       0.192400
      3 C2           1.9300     0.0000     1.4210 ca         1 SS2      -0.100300
      4 C3           1.2930    -0.7660     2.3790 ca         1 SS2      -0.110500
      5 C4           1.7560    -0.7700     3.6820 ca         1 SS2      -0.132000
      6 C5           2.8510    -0.0010     4.0280 ca         1 SS2      -0.126000
      7 C6           3.4860     0.7690     3.0710 ca         1 SS2      -0.132000
      8 C7           3.0260     0.7690     1.7680 ca         1 SS2      -0.110500
      9 C8           1.9400    -1.2480    -0.7220 c3         1 SS2      -0.103100
     10 HO1         -0.3140     0.7110    -0.5330 ho         1 SS2       0.402000
     11 H1           1.7900     0.8850    -0.5100 h1         1 SS2       0.033700
     12 H3           0.4350    -1.3680     2.1080 ha         1 SS2       0.135000
     13 H4           1.2570    -1.3710     4.4320 ha         1 SS2       0.129000
     14 H5           3.2130    -0.0020     5.0490 ha         1 SS2       0.128000
     15 H6           4.3440     1.3720     3.3430 ha         1 SS2       0.129000
     16 H7           3.5230     1.3720     1.0180 ha         1 SS2       0.135000
     17 H81          3.0140    -1.3180    -0.6050 hc         1 SS2       0.044033
     18 H82          1.4720    -2.1280    -0.2960 hc         1 SS2       0.044033
     19 H83          1.6940    -1.1820    -1.7750 hc         1 SS2       0.044033
@<TRIPOS>BOND
     1     1     2 1
     2     1    10 1
     3     2     3 1
     4     2     9 1
     5     2    11 1
     6     3     4 ar
     7     3     8 ar
     8     4     5 ar
     9     4    12 1
    10     5     6 ar
    11     5    13 1
    12     6     7 ar
    13     6    14 1
    14     7     8 ar
    15     7    15 1
    16     8    16 1
    17     9    17 1
    18     9    18 1
    19     9    19 1
@<TRIPOS>SUBSTRUCTURE
     1 SS2         1 TEMP              0 ****  ****    0 ROOT
