@<TRIPOS>MOLECULE
molecule
   50    53     1     0     0
SMALL
bcc


@<TRIPOS>ATOM
      1 N1           0.0000     0.0000     0.0000 nc         1 SS3      -0.487100
      2 N3           6.7600     0.0010     3.8810 nb         1 SS3      -0.648000
      3 C4           0.5810    -0.0000     2.1800 ca         1 SS3      -0.003200
      4 C5           0.6880     0.0000     3.5700 ca         1 SS3      -0.154000
      5 C6           1.9160     0.0000     4.1620 ca         1 SS3      -0.073000
      6 C8           1.3020     0.0000     0.0000 cd         1 SS3       0.381900
      7 C13          8.6330    -0.8820    12.2460 ca         1 SS3      -0.167000
      8 C15          8.5060     0.4800    14.2120 ca         1 SS3      -0.090000
      9 C9           2.1900     0.0010    -1.2180 c3         1 SS3      -0.095400
     10 C17          8.5870     0.2520    11.4580 ca         1 SS3      -0.156300
     11 C20          4.4100     0.0010     4.0530 cp         1 SS3      -0.068300
     12 C21          4.5060     0.0000     5.4460 ca         1 SS3      -0.119000
     13 C22          5.7720     0.0010     6.0180 ca         1 SS3      -0.005200
     14 C24          7.2500     0.0020     7.8810 c3         1 SS3       0.158400
     15 C1           3.0830     0.0010     3.3890 cp         1 SS3      -0.110000
     16 C2           3.0030    -0.0010     2.0050 ca         1 SS3      -0.019000
     17 C3           1.7480     0.0000     1.3900 ca         1 SS3      -0.251900
     18 N5          -0.4810    -0.0000     1.3130 na         1 SS3      -0.044100
     19 C14          8.5900    -0.7680    13.6240 ca         1 SS3      -0.098500
     20 C16          8.5000     1.5010    12.0460 ca         1 SS3      -0.167000
     21 C18          6.8870     0.0010     5.1940 ca         1 SS3       0.319200
     22 C19          5.5800     0.0010     3.2960 ca         1 SS3       0.391200
     23 C26          8.4560     1.6150    13.4220 ca         1 SS3      -0.098500
     24 O1           5.9150     0.0010     7.3710 os         1 SS3      -0.334900
     25 C23          7.2110     0.0030     9.4100 c3         1 SS3       0.122500
     26 C25          8.6350     0.1290     9.9570 c3         1 SS3      -0.087100
     27 N4           6.6140    -1.2520     9.8850 nz         1 SS3      -0.956600
     28 H2           3.9050    -0.0000     1.4050 ha         1 SS3       0.138000
     29 H5          -0.2070    -0.0000     4.1810 ha         1 SS3       0.137000
     30 HA          -1.4460    -0.0000     1.5780 hn         1 SS3       0.338700
     31 H9C1         2.8230     0.8800    -1.2020 hc         1 SS3       0.058367
     32 H9C2         1.5770     0.0130    -2.1110 hc         1 SS3       0.058367
     33 H9C3         2.8070    -0.8890    -1.2150 hc         1 SS3       0.058367
     34 H6           1.9900    -0.0010     5.2430 ha         1 SS3       0.129000
     35 H21          3.6390     0.2440     6.0490 ha         1 SS3       0.157000
     36 H19          5.7580    -0.0010     2.2270 h4         1 SS3       0.047100
     37 H18          7.8770     0.0080     5.6340 h4         1 SS3       0.010100
     38 H241         7.7700    -0.8830     7.5340 h1         1 SS3       0.072700
     39 H242         7.7690     0.8860     7.5330 h1         1 SS3       0.072700
     40 H23          6.6160     0.8400     9.7560 hx         1 SS3       0.123700
     41 H251         9.1060     1.0090     9.5370 hc         1 SS3       0.094700
     42 H252         9.2050    -0.7510     9.6850 hc         1 SS3       0.094700
     43 H4N1         6.3010    -1.1370    10.8290 hn         1 SS3       0.504467
     44 H4N2         7.2970    -1.9820     9.8470 hn         1 SS3       0.504467
     45 H16          8.4620     2.3890    11.4270 ha         1 SS3       0.141000
     46 H14          8.6180    -1.6660    14.2290 ha         1 SS3       0.157000
     47 H26          8.1160     2.5860    13.7610 ha         1 SS3       0.157000
     48 H13          8.8030    -1.9040    11.9320 ha         1 SS3       0.141000
     49 H43          6.6260    -1.4510    10.8660 hn         1 SS3       0.504467
     50 H15          8.3290     0.3790    15.2760 ha         1 SS3       0.161000
@<TRIPOS>BOND
     1     6     1 2
     2    18     1 1
     3    22     2 ar
     4    17     3 ar
     5     3     4 ar
     6     4     5 ar
     7    15     5 ar
     8    17     6 1
     9    10     7 ar
    10    19     8 ar
    11    23     8 ar
    12     6     9 1
    13    26    10 1
    14    15    11 1
    15    11    12 ar
    16    12    13 ar
    17    24    14 1
    18    16    15 ar
    19    17    16 ar
    20     3    18 1
    21     7    19 ar
    22    10    20 ar
    23    13    21 ar
    24     2    21 ar
    25    11    22 ar
    26    20    23 ar
    27    13    24 1
    28    14    25 1
    29    25    26 1
    30    25    27 1
    31    16    28 1
    32     4    29 1
    33    18    30 1
    34     9    31 1
    35     9    32 1
    36     9    33 1
    37     5    34 1
    38    12    35 1
    39    22    36 1
    40    21    37 1
    41    14    38 1
    42    14    39 1
    43    25    40 1
    44    26    41 1
    45    26    42 1
    46    27    43 1
    47    27    44 1
    48     7    48 1
    49    20    45 1
    50    19    46 1
    51    23    47 1
    52     8    50 1
    53    49    27 1
@<TRIPOS>SUBSTRUCTURE
     1 SS3         1 TEMP              0 ****  ****    0 ROOT
