@<TRIPOS>MOLECULE
SS4
   50    53     1     0     0
SMALL
bcc


@<TRIPOS>ATOM
      1 N1           0.0000     0.0000     0.0000 nc         1 SS4      -0.648100
      2 N3           6.7610    -0.0040     3.8800 nb         1 SS4      -0.513000
      3 C4           0.5820    -0.0010     2.1800 ca         1 SS4      -0.169200
      4 C5           0.6890    -0.0030     3.5700 ca         1 SS4      -0.149000
      5 C6           1.9170    -0.0020     4.1620 ca         1 SS4      -0.054000
      6 C8           1.3030     0.0000     0.0000 cd         1 SS4       0.462900
      7 C13          8.6330    -0.8960    12.2450 ca         1 SS4      -0.098000
      8 C15          8.5040     0.4640    14.2120 ca         1 SS4       0.035100
      9 C9           2.1910     0.0020    -1.2180 c3         1 SS4       0.010600
     10 C17          8.5890     0.2390    11.4560 ca         1 SS4      -0.174300
     11 C20          4.4110    -0.0030     4.0530 cp         1 SS4      -0.092300
     12 C21          4.5070    -0.0050     5.4460 ca         1 SS4      -0.098000
     13 C22          5.7720    -0.0060     6.0180 ca         1 SS4      -0.000200
     14 C24          7.2510    -0.0080     7.8800 c3         1 SS4       0.188400
     15 C1           3.0830    -0.0020     3.3890 cp         1 SS4      -0.298000
     16 C2           3.0030    -0.0010     2.0050 ca         1 SS4      -0.179000
     17 C3           1.7480     0.0000     1.3900 ca         1 SS4      -0.252900
     18 N5          -0.4800    -0.0000     1.3130 na         1 SS4       0.458900
     19 C14          8.5910    -0.7830    13.6220 ca         1 SS4      -0.056000
     20 C16          8.5010     1.4870    12.0460 ca         1 SS4      -0.098000
     21 C18          6.8880    -0.0060     5.1930 ca         1 SS4       0.311200
     22 C19          5.5810    -0.0030     3.2960 ca         1 SS4       0.396200
     23 C26          8.4590     1.6000    13.4230 ca         1 SS4      -0.056000
     24 O1           5.9160    -0.0060     7.3700 os         1 SS4      -0.335900
     25 C10          7.2120    -0.0080     9.4100 c3         1 SS4      -0.074500
     26 C25          8.6350     0.1170     9.9560 c3         1 SS4       0.035900
     27 N4           6.6140    -1.2630     9.8840 nz         1 SS4       0.062400
     28 H5          -1.4450    -0.0000     1.5780 hn         1 SS4       0.156700
     29 H18          7.8780    -0.0060     5.6330 h4         1 SS4      -0.015900
     30 H19          5.5190    -0.0020     2.2140 h4         1 SS4       0.034100
     31 HA          -0.2070    -0.0040     4.1780 ha         1 SS4       0.115000
     32 H6           1.7000     0.0320     5.2230 ha         1 SS4       0.114000
     33 H9C1         2.8820    -0.8300    -1.1620 hc         1 SS4       0.021033
     34 H9C2         1.5830    -0.0940    -2.1090 hc         1 SS4       0.021033
     35 H9C3         2.7470     0.9310    -1.2580 hc         1 SS4       0.021033
     36 H14          8.6260    -1.6730    14.2390 ha         1 SS4       0.133000
     37 H26          8.3910     2.5770    13.8840 ha         1 SS4       0.133000
     38 H16          8.4660     2.3760    11.4280 ha         1 SS4       0.107000
     39 H251         9.1070     0.9970     9.5360 hc         1 SS4       0.055200
     40 H252         9.2050    -0.7630     9.6830 hc         1 SS4       0.055200
     41 H21          3.6170    -0.0050     6.0640 ha         1 SS4       0.131000
     42 H241         7.7720     0.8760     7.5330 h1         1 SS4       0.039700
     43 H242         7.7690    -0.8930     7.5320 h1         1 SS4       0.039700
     44 H10          6.6180     0.8290     9.7570 hx         1 SS4       0.103700
     45 H2           3.4270     0.1460     2.9910 ha         1 SS4       0.370000
     46 H4N1         7.2770    -2.0060     9.7870 hn         1 SS4       0.231467
     47 H4N2         6.3580    -1.1680    10.8460 hn         1 SS4       0.231467
     48 Br1          8.4460     0.6180    16.0960 br         1 SS4      -0.052100
     49 H43          5.7990    -1.4700     9.3410 hn         1 SS4       0.231467
     50 H13          8.7020    -1.8740    11.7830 ha         1 SS4       0.107000
@<TRIPOS>BOND
     1     1     6 2   
     2     1    18 1   
     3     2    21 ar  
     4     2    22 ar  
     5     3     4 ar  
     6     3    17 ar  
     7     3    18 1   
     8     4     5 ar  
     9     4    31 1   
    10     5    15 ar  
    11     5    32 1   
    12     6     9 1   
    13     6    17 1   
    14     7    10 ar  
    15     7    19 ar  
    16     7    50 1   
    17     8    19 ar  
    18     8    23 ar  
    19     8    48 1   
    20     9    33 1   
    21     9    34 1   
    22     9    35 1   
    23    10    20 ar  
    24    10    26 1   
    25    11    12 ar  
    26    11    15 1   
    27    11    22 ar  
    28    12    13 ar  
    29    12    41 1   
    30    13    21 ar  
    31    13    24 1   
    32    14    24 1   
    33    14    25 1   
    34    14    42 1   
    35    14    43 1   
    36    15    16 ar  
    37    16    17 ar  
    38    16    45 1   
    39    18    28 1   
    40    19    36 1   
    41    20    23 ar  
    42    20    38 1   
    43    21    29 1   
    44    22    30 1   
    45    23    37 1   
    46    25    26 1   
    47    25    27 1   
    48    25    44 1   
    49    26    39 1   
    50    26    40 1   
    51    27    46 1   
    52    27    47 1   
    53    27    49 1   
@<TRIPOS>SUBSTRUCTURE
     1 SS4         1 TEMP              0 ****  ****    0 ROOT
