@<TRIPOS>MOLECULE
molecule
   70    74     1     0     0
SMALL
bcc


@<TRIPOS>ATOM
      1 C1           0.0000     0.0000     0.0000 ca         1 SS5      -0.114300
      2 C2           1.3820     0.0000     0.0000 ca         1 SS5      -0.207000
      3 C3           2.0760     0.0000     1.1950 ca         1 SS5      -0.067000
      4 C4           1.3890    -0.0010     2.3940 ca         1 SS5      -0.200000
      5 C5           0.0020    -0.0000     2.3970 ca         1 SS5       0.175100
      6 C6          -0.6920    -0.0010     1.1960 ca         1 SS5      -0.148000
      7 C7          -0.7540     0.0060    -1.3050 c3         1 SS5      -0.049100
      8 O8          -0.6760    -0.0020     3.5750 os         1 SS5      -0.315900
      9 C9          -1.0070    -1.4350    -1.7550 c3         1 SS5       0.111500
     10 C10         -1.8790    -1.4300    -3.0130 c3         1 SS5       0.113400
     11 O11         -2.2130    -2.7740    -3.3640 os         1 SS5      -0.362900
     12 N12          0.2740    -2.0890    -2.0480 nz         1 SS5      -0.806600
     13 C13         -2.9880    -2.9490    -4.4670 ca         1 SS5      -0.012200
     14 C14         -3.4230    -1.8530    -5.2010 ca         1 SS5       0.332200
     15 N15         -4.1760    -2.0110    -6.2720 nb         1 SS5      -0.637000
     16 C16         -4.5470    -3.2020    -6.6940 ca         1 SS5       0.403200
     17 C17         -4.1520    -4.3520    -6.0140 cp         1 SS5      -0.083300
     18 C18         -3.3510    -4.2250    -4.8770 ca         1 SS5      -0.120000
     19 C19         -4.1700    -6.8390    -5.7990 ca         1 SS5      -0.073000
     20 C20         -4.5480    -8.0780    -6.2250 ca         1 SS5      -0.152000
     21 C21         -5.3430    -8.2170    -7.3610 ca         1 SS5      -0.002200
     22 C22         -5.7570    -7.0700    -8.0680 ca         1 SS5      -0.251900
     23 C23         -5.3650    -5.8030    -7.6240 ca         1 SS5      -0.021000
     24 C24         -4.5740    -5.6920    -6.4920 cp         1 SS5      -0.112000
     25 N25         -5.8710    -9.2960    -8.0190 na         1 SS5      -0.043100
     26 N26         -6.6050    -8.8460    -9.1220 nc         1 SS5      -0.485100
     27 C27         -6.5640    -7.5470    -9.1870 cd         1 SS5       0.382900
     28 C28         -7.2290    -6.6870   -10.2310 c3         1 SS5      -0.096400
     29 C29          0.1040    -0.0030     4.7720 c3         1 SS5       0.133400
     30 C30         -0.8260    -0.0040     5.9870 c3         1 SS5      -0.068700
     31 C31          0.0040    -0.1320     7.2650 c3         1 SS5      -0.075400
     32 C32         -0.9270    -0.1330     8.4800 c3         1 SS5      -0.077900
     33 C33         -1.7210     1.1750     8.5150 c3         1 SS5      -0.082400
     34 C34         -2.5520     1.3020     7.2360 c3         1 SS5      -0.077900
     35 C35         -1.6210     1.3030     6.0220 c3         1 SS5      -0.075400
     36 H2           1.9230     0.0010    -0.9390 ha         1 SS5       0.112000
     37 H6          -1.7760    -0.0010     1.1950 ha         1 SS5       0.155000
     38 H7C1        -1.7010     0.5150    -1.1730 hc         1 SS5       0.090200
     39 H7C2        -0.1690     0.5210    -2.0580 hc         1 SS5       0.090200
     40 H3           3.1590    -0.0000     1.1920 ha         1 SS5       0.150000
     41 H4           1.9330    -0.0010     3.3310 ha         1 SS5       0.159000
     42 H9          -1.5160    -1.9750    -0.9650 hx         1 SS5       0.131700
     43 H291         0.7280     0.8820     4.7970 h1         1 SS5       0.041700
     44 H292         0.7290    -0.8870     4.7950 h1         1 SS5       0.041700
     45 H101        -1.3350    -0.9690    -3.8280 h1         1 SS5       0.075700
     46 H102        -2.7870    -0.8710    -2.8210 h1         1 SS5       0.075700
     47 H121         0.7270    -2.3370    -1.1910 hn         1 SS5       0.458800
     48 H122         0.8580    -1.4630    -2.5650 hn         1 SS5       0.458800
     49 H14         -3.1400    -0.8550    -4.8890 h4         1 SS5       0.015100
     50 H18         -3.0270    -5.0990    -4.3260 ha         1 SS5       0.153000
     51 H16         -5.1670    -3.2880    -7.5780 h4         1 SS5       0.043100
     52 H25         -5.7510   -10.2530    -7.7540 hn         1 SS5       0.339700
     53 H23         -5.5650    -4.9300    -8.2340 ha         1 SS5       0.138000
     54 H281        -7.9140    -5.9990    -9.7500 hc         1 SS5       0.059033
     55 H282        -6.4760    -6.1270   -10.7710 hc         1 SS5       0.059033
     56 H283        -7.7760    -7.3170   -10.9220 hc         1 SS5       0.059033
     57 H30         -1.5130    -0.8400     5.9200 hc         1 SS5       0.066700
     58 H311         0.6870     0.7060     7.3360 hc         1 SS5       0.045450
     59 H312         0.5640    -1.0590     7.2400 hc         1 SS5       0.045450
     60 H351        -2.2100     1.3910     5.1170 hc         1 SS5       0.045450
     61 H352        -0.9350     2.1390     6.0960 hc         1 SS5       0.045450
     62 H321        -0.3370    -0.2200     9.3850 hc         1 SS5       0.047450
     63 H322        -1.6120    -0.9680     8.4070 hc         1 SS5       0.047450
     64 H331        -2.3810     1.1720     9.3740 hc         1 SS5       0.047200
     65 H332        -1.0350     2.0110     8.5830 hc         1 SS5       0.047200
     66 H341        -3.1120     2.2290     7.2610 hc         1 SS5       0.047450
     67 H342        -3.2340     0.4630     7.1650 hc         1 SS5       0.047450
     68 H19         -3.5520    -6.7410    -4.9150 ha         1 SS5       0.128000
     69 H123         0.1090    -2.9230    -2.5780 hn         1 SS5       0.458800
     70 H20         -4.2280    -8.9570    -5.6790 ha         1 SS5       0.138000
@<TRIPOS>BOND
     1     1     2 ar
     2     2     3 ar
     3     3     4 ar
     4     4     5 ar
     5     1     6 ar
     6     5     6 ar
     7     1     7 1
     8     5     8 1
     9     7     9 1
    10     9    10 1
    11    10    11 1
    12     9    12 1
    13    11    13 1
    14    13    14 ar
    15    14    15 ar
    16    15    16 ar
    17    16    17 ar
    18    13    18 ar
    19    17    18 ar
    20    19    20 ar
    21    20    21 ar
    22    21    22 ar
    23    22    23 ar
    24    17    24 1
    25    19    24 ar
    26    23    24 ar
    27    21    25 1
    28    25    26 1
    29    22    27 1
    30    26    27 2
    31    27    28 1
    32     8    29 1
    33    29    30 1
    34    30    31 1
    35    31    32 1
    36    32    33 1
    37    33    34 1
    38    30    35 1
    39    34    35 1
    40     2    36 1
    41     6    37 1
    42     7    38 1
    43     7    39 1
    44     3    40 1
    45     4    41 1
    46     9    42 1
    47    29    43 1
    48    29    44 1
    49    10    45 1
    50    10    46 1
    51    12    47 1
    52    12    48 1
    53    14    49 1
    54    18    50 1
    55    16    51 1
    56    19    68 1
    57    20    70 1
    58    25    52 1
    59    23    53 1
    60    28    54 1
    61    28    55 1
    62    28    56 1
    63    30    57 1
    64    31    58 1
    65    31    59 1
    66    35    60 1
    67    35    61 1
    68    32    62 1
    69    32    63 1
    70    33    64 1
    71    33    65 1
    72    34    66 1
    73    34    67 1
    74    69    12 1
@<TRIPOS>SUBSTRUCTURE
     1 SS5         1 TEMP              0 ****  ****    0 ROOT
