@<TRIPOS>MOLECULE
SS5
   70    74     1     0     0
SMALL
bcc


@<TRIPOS>ATOM
      1 C1           0.0000     0.0000     0.0000 ca         1 SS5      -0.133300
      2 C2           1.3820     0.0000     0.0000 ca         1 SS5      -0.188000
      3 C3           2.0760     0.0000     1.1950 ca         1 SS5      -0.026000
      4 C4           1.3890    -0.0010     2.3940 ca         1 SS5      -0.185000
      5 C5           0.0020    -0.0000     2.3970 ca         1 SS5       0.187100
      6 C6          -0.6920    -0.0010     1.1960 ca         1 SS5      -0.124000
      7 C7          -0.7540     0.0060    -1.3050 c3         1 SS5       0.035900
      8 O8          -0.6760    -0.0020     3.5750 os         1 SS5      -0.292900
      9 C9          -1.0070    -1.4350    -1.7550 c3         1 SS5      -0.075500
     10 C10         -1.8790    -1.4300    -3.0130 c3         1 SS5       0.188400
     11 O11         -2.2130    -2.7740    -3.3640 os         1 SS5      -0.336900
     12 N12          0.2740    -2.0890    -2.0480 nz         1 SS5       0.062400
     13 C13         -2.9880    -2.9490    -4.4670 ca         1 SS5       0.004800
     14 C14         -3.4230    -1.8530    -5.2010 ca         1 SS5       0.295200
     15 N15         -4.1760    -2.0110    -6.2720 nb         1 SS5      -0.516000
     16 C16         -4.5470    -3.2020    -6.6940 ca         1 SS5       0.373200
     17 C17         -4.1520    -4.3520    -6.0140 cp         1 SS5      -0.061300
     18 C18         -3.3510    -4.2250    -4.8770 ca         1 SS5      -0.114000
     19 C19         -4.1700    -6.8390    -5.7990 ca         1 SS5      -0.053000
     20 C20         -4.5480    -8.0780    -6.2250 ca         1 SS5      -0.112000
     21 C21         -5.3430    -8.2170    -7.3610 ca         1 SS5      -0.170200
     22 C22         -5.7570    -7.0700    -8.0680 ca         1 SS5      -0.264900
     23 C23         -5.3650    -5.8030    -7.6240 ca         1 SS5       0.019000
     24 C24         -4.5740    -5.6920    -6.4920 cp         1 SS5      -0.118000
     25 N25         -5.8710    -9.2960    -8.0190 na         1 SS5       0.427900
     26 N26         -6.6050    -8.8460    -9.1220 nc         1 SS5      -0.620100
     27 C27         -6.5640    -7.5470    -9.1870 cd         1 SS5       0.405900
     28 C28         -7.2290    -6.6870   -10.2310 c3         1 SS5       0.011600
     29 C29          0.1040    -0.0030     4.7720 c3         1 SS5       0.201400
     30 C30         -0.8260    -0.0040     5.9870 c3         1 SS5      -0.056700
     31 C31          0.0040    -0.1320     7.2650 c3         1 SS5      -0.021400
     32 C32         -0.9270    -0.1330     8.4800 c3         1 SS5      -0.021400
     33 C33         -1.7210     1.1750     8.5150 c3         1 SS5      -0.026400
     34 C34         -2.5520     1.3020     7.2360 c3         1 SS5      -0.021400
     35 C35         -1.6210     1.3030     6.0220 c3         1 SS5      -0.021400
     36 H2           1.9230     0.0010    -0.9390 ha         1 SS5       0.094000
     37 H6          -1.7760    -0.0010     1.1950 ha         1 SS5       0.129000
     38 H7C1        -1.7010     0.5150    -1.1730 hc         1 SS5       0.054200
     39 H7C2        -0.1690     0.5210    -2.0580 hc         1 SS5       0.054200
     40 H3           3.1590    -0.0000     1.1920 ha         1 SS5       0.116000
     41 H4           1.9330    -0.0010     3.3310 ha         1 SS5       0.140000
     42 H9          -1.5160    -1.9750    -0.9650 hx         1 SS5       0.104700
     43 H291         0.7280     0.8820     4.7970 h1         1 SS5       0.007700
     44 H292         0.7290    -0.8870     4.7950 h1         1 SS5       0.007700
     45 H101        -1.3350    -0.9690    -3.8280 h1         1 SS5       0.039200
     46 H102        -2.7870    -0.8710    -2.8210 h1         1 SS5       0.039200
     47 H121         0.7270    -2.3370    -1.1910 hn         1 SS5       0.230800
     48 H122         0.8580    -1.4630    -2.5650 hn         1 SS5       0.230800
     49 H14         -3.1400    -0.8550    -4.8890 h4         1 SS5      -0.017900
     50 H18         -3.0270    -5.0990    -4.3260 ha         1 SS5       0.129000
     51 H16         -5.1670    -3.2880    -7.5780 h4         1 SS5       0.003100
     52 H25         -5.7510   -10.2530    -7.7540 hn         1 SS5       0.158700
     53 H23         -5.5650    -4.9300    -8.2340 ha         1 SS5       0.112000
     54 H281        -7.9140    -5.9990    -9.7500 hc         1 SS5       0.017367
     55 H282        -6.4760    -6.1270   -10.7710 hc         1 SS5       0.017367
     56 H283        -7.7760    -7.3170   -10.9220 hc         1 SS5       0.017367
     57 H30         -1.5130    -0.8400     5.9200 hc         1 SS5       0.040700
     58 H311         0.6870     0.7060     7.3360 hc         1 SS5       0.017200
     59 H312         0.5640    -1.0590     7.2400 hc         1 SS5       0.017200
     60 H351        -2.2100     1.3910     5.1170 hc         1 SS5       0.017200
     61 H352        -0.9350     2.1390     6.0960 hc         1 SS5       0.017200
     62 H321        -0.3370    -0.2200     9.3850 hc         1 SS5       0.018200
     63 H322        -1.6120    -0.9680     8.4070 hc         1 SS5       0.018200
     64 H331        -2.3810     1.1720     9.3740 hc         1 SS5       0.018700
     65 H332        -1.0350     2.0110     8.5830 hc         1 SS5       0.018700
     66 H341        -3.1120     2.2290     7.2610 hc         1 SS5       0.018200
     67 H342        -3.2340     0.4630     7.1650 hc         1 SS5       0.018200
     68 H19         -3.5520    -6.7410    -4.9150 ha         1 SS5       0.101000
     69 H123         0.1090    -2.9230    -2.5780 hn         1 SS5       0.230800
     70 H20         -4.2280    -8.9570    -5.6790 ha         1 SS5       0.109000
@<TRIPOS>BOND
     1     1     2 ar  
     2     1     6 ar  
     3     1     7 1   
     4     2     3 ar  
     5     2    36 1   
     6     3     4 ar  
     7     3    40 1   
     8     4     5 ar  
     9     4    41 1   
    10     5     6 ar  
    11     5     8 1   
    12     6    37 1   
    13     7     9 1   
    14     7    38 1   
    15     7    39 1   
    16     8    29 1   
    17     9    10 1   
    18     9    12 1   
    19     9    42 1   
    20    10    11 1   
    21    10    45 1   
    22    10    46 1   
    23    11    13 1   
    24    12    47 1   
    25    12    48 1   
    26    12    69 1   
    27    13    14 ar  
    28    13    18 ar  
    29    14    15 ar  
    30    14    49 1   
    31    15    16 ar  
    32    16    17 ar  
    33    16    51 1   
    34    17    18 ar  
    35    17    24 1   
    36    18    50 1   
    37    19    20 ar  
    38    19    24 ar  
    39    19    68 1   
    40    20    21 ar  
    41    20    70 1   
    42    21    22 ar  
    43    21    25 1   
    44    22    23 ar  
    45    22    27 1   
    46    23    24 ar  
    47    23    53 1   
    48    25    26 1   
    49    25    52 1   
    50    26    27 2   
    51    27    28 1   
    52    28    54 1   
    53    28    55 1   
    54    28    56 1   
    55    29    30 1   
    56    29    43 1   
    57    29    44 1   
    58    30    31 1   
    59    30    35 1   
    60    30    57 1   
    61    31    32 1   
    62    31    58 1   
    63    31    59 1   
    64    32    33 1   
    65    32    62 1   
    66    32    63 1   
    67    33    34 1   
    68    33    64 1   
    69    33    65 1   
    70    34    35 1   
    71    34    66 1   
    72    34    67 1   
    73    35    60 1   
    74    35    61 1   
@<TRIPOS>SUBSTRUCTURE
     1 SS5         1 TEMP              0 ****  ****    0 ROOT
