@<TRIPOS>MOLECULE
SS6
   68    73     1     0     0
SMALL
bcc


@<TRIPOS>ATOM
      1 C4           0.0000     0.0000     0.0000 ca         1 SS6      -0.008000
      2 C5           1.4160     0.0000     0.0000 ca         1 SS6      -0.121000
      3 C6           2.0850     0.0000     1.2490 c2         1 SS6       0.003000
      4 N1           1.3510    -0.0000     2.3530 n2         1 SS6      -0.189000
      5 N3          -0.6440     0.0000     1.1780 n2         1 SS6      -0.129000
      6 CBA          1.2160    -7.4700     9.9160 c2         1 SS6       0.055000
      7 CAP          2.5010    -7.0550     9.6310 cx         1 SS6      -0.431000
      8 CAJ          0.1920    -6.5430    10.0110 c2         1 SS6      -0.246000
      9 CAH          0.4550    -5.1980     9.8260 c2         1 SS6       0.038000
     10 CAM          1.7410    -4.7760     9.5460 c2         1 SS6      -0.382000
     11 CBE          2.7680    -5.7040     9.4450 cu         1 SS6      -0.046000
     12 NBK          3.5660    -5.6670     9.2110 nk         1 SS6       0.937000
     13 NAV          4.6460    -6.3020     9.8380 n2         1 SS6      -0.334000
     14 CBF          5.7380    -5.6410     9.5500 c2         1 SS6       0.036000
     15 CBL          7.1270    -5.9850    10.0230 c3         1 SS6      -0.006000
     16 CAC          7.5480    -5.0100    11.1250 c3         1 SS6      -0.111000
     17 CAD          7.1390    -7.4130    10.5730 c3         1 SS6      -0.111000
     18 CAB          8.1040    -5.8820     8.8510 c3         1 SS6      -0.111000
     19 CAR          5.3990    -4.5600     8.7310 c2         1 SS6      -0.231000
     20 CBG          4.0540    -4.5960     8.5270 c2         1 SS6      -0.326000
     21 NAX          3.8260    -3.2950     7.5530 ns         1 SS6       0.095000
     22 CAZ          4.3820    -2.4820     6.6320 c2         1 SS6       0.203000
     23 OAF          5.5920    -2.3970     6.5480 o          1 SS6      -0.448000
     24 CBC          4.1710    -0.9970     4.7850 ca         1 SS6      -0.055000
     25 CAQ          3.5320    -0.8810     3.5590 ca         1 SS6      -0.136000
     26 CAK          5.3800    -0.3470     5.0010 ca         1 SS6      -0.117000
     27 CAG          5.9480     0.4100     3.9940 ca         1 SS6      -0.063000
     28 CAL          5.3170     0.5240     2.7710 ca         1 SS6      -0.150000
     29 CBD          4.1050    -0.1200     2.5500 ca         1 SS6      -0.070000
     30 NAY          3.4640    -0.0000     1.3140 nu         1 SS6       0.194000
     31 CAS          2.1110    -0.0010    -1.2130 ca         1 SS6      -0.192000
     32 CBB          1.4010    -0.0010    -2.3980 ca         1 SS6      -0.031000
     33 NAE          2.0890    -0.0020    -3.6150 nv         1 SS6       0.051000
     34 CAN          0.0040    -0.0010    -2.3910 ca         1 SS6      -0.136000
     35 CAO         -0.6910    -0.0060    -1.2200 ca         1 SS6      -0.039000
     36 C2           0.0280    -0.0000     2.3040 c2         1 SS6      -0.013000
     37 HAA          1.4030    -9.2750    11.0280 hc         1 SS6       0.048667
     38 HAAA        -0.1460    -9.0830    10.1940 hc         1 SS6       0.048667
     39 HAAB         1.3080    -9.4980     9.2760 hc         1 SS6       0.048667
     40 HAP          3.3000    -7.7820     9.5520 hx         1 SS6       0.177000
     41 HAJ         -0.8160    -6.8720    10.2300 ha         1 SS6       0.113000
     42 HAH         -0.3480    -4.4750     9.9040 ha         1 SS6       0.094000
     43 HAM          1.9460    -3.7230     9.4020 ha         1 SS6       0.136000
     44 HAC          6.8160    -5.0310    11.9240 hc         1 SS6       0.051111
     45 HACA         8.5160    -5.3010    11.5140 hc         1 SS6       0.051111
     46 HACB         7.6090    -4.0090    10.7170 hc         1 SS6       0.051111
     47 HAD          6.4790    -7.4750    11.4300 hc         1 SS6       0.051111
     48 HADA         8.1460    -7.6760    10.8720 hc         1 SS6       0.051111
     49 HADB         6.7990    -8.0980     9.8060 hc         1 SS6       0.051111
     50 HAB          7.7120    -6.4310     8.0040 hc         1 SS6       0.051111
     51 HABA         8.2330    -4.8410     8.5790 hc         1 SS6       0.051111
     52 HABB         9.0610    -6.3010     9.1400 hc         1 SS6       0.051111
     53 HAR          6.0860    -3.8270     8.3240 ha         1 SS6       0.182000
     54 HNAW         2.6010    -1.8200     5.8880 hn         1 SS6       0.086000
     55 HAQ          2.5880    -1.3840     3.3900 ha         1 SS6       0.140000
     56 HAK          5.8780    -0.4330     5.9590 ha         1 SS6       0.147000
     57 HAG          6.8910     0.9140     4.1640 ha         1 SS6       0.104000
     58 HAL          5.7650     1.1180     1.9840 ha         1 SS6       0.104000
     59 HAS          3.1820    -0.1580    -1.2230 ha         1 SS6       0.111000
     60 HNAE         3.0890    -0.0010    -3.6250 hn         1 SS6       0.062500
     61 HNAA         1.5800    -0.0020    -4.4770 hn         1 SS6       0.062500
     62 HAN         -0.5350    -0.0010    -3.3310 ha         1 SS6       0.108000
     63 HAO         -1.7740    -0.0060    -1.2310 ha         1 SS6       0.119000
     64 H2          -0.5230    -0.0010     3.2370 h5         1 SS6       0.129000
     65 H29          2.9140    -3.0940     7.1920 hn         1 SS6       0.017000
     66 H30          4.0040     0.1290     0.4810 hn         1 SS6       0.087000
     67 NAW          3.5970    -1.7630     5.8060 ns         1 SS6       0.108000
     68 CAA          0.9250    -8.9340    10.1170 c3         1 SS6      -0.072000
@<TRIPOS>BOND
     1     1     2 1   
     2     1     5 1   
     3     1    35 1   
     4     2     3 1   
     5     2    31 1   
     6     3     4 1   
     7     3    30 1   
     8     4    36 1   
     9     5    36 1   
    10     6     7 1   
    11     6     8 1   
    12     6    68 1   
    13     7    11 1   
    14     7    12 1   
    15     7    40 1   
    16     8     9 1   
    17     8    41 1   
    18     9    10 1   
    19     9    42 1   
    20    10    11 1   
    21    10    43 1   
    22    11    12 1   
    23    12    13 1   
    24    12    20 1   
    25    13    14 1   
    26    14    15 1   
    27    14    19 1   
    28    15    16 1   
    29    15    17 1   
    30    15    18 1   
    31    16    44 1   
    32    16    45 1   
    33    16    46 1   
    34    17    47 1   
    35    17    48 1   
    36    17    49 1   
    37    18    50 1   
    38    18    51 1   
    39    18    52 1   
    40    19    20 1   
    41    19    53 1   
    42    20    21 1   
    43    21    22 1   
    44    21    65 1   
    45    22    23 1   
    46    22    67 1   
    47    24    25 1   
    48    24    26 1   
    49    24    67 1   
    50    25    29 1   
    51    25    55 1   
    52    26    27 1   
    53    26    56 1   
    54    27    28 1   
    55    27    57 1   
    56    28    29 1   
    57    28    58 1   
    58    29    30 1   
    59    30    66 1   
    60    31    32 1   
    61    31    59 1   
    62    32    33 1   
    63    32    34 1   
    64    33    60 1   
    65    33    61 1   
    66    34    35 1   
    67    34    62 1   
    68    35    63 1   
    69    36    64 1   
    70    37    68 1   
    71    38    68 1   
    72    39    68 1   
    73    54    67 1   
@<TRIPOS>SUBSTRUCTURE
     1 SS6         1 TEMP              0 ****  ****    0 ROOT
