@<TRIPOS>MOLECULE
molecule
   48    50     1     0     0
SMALL
bcc


@<TRIPOS>ATOM
      1 O11          0.0000     0.0000     0.0000 o          1 SS7      -0.561000
      2 C8           1.2140     0.0000     0.0000 c          1 SS7       0.717100
      3 C5           2.0780     0.0000     1.1990 ca         1 SS7      -0.153600
      4 C4           1.8380     0.0020     2.5640 ca         1 SS7      -0.063000
      5 C3           2.9040     0.0020     3.4500 ca         1 SS7      -0.115500
      6 C2           4.2040     0.0020     2.9810 ca         1 SS7      -0.115500
      7 C1           4.4590     0.0020     1.6180 ca         1 SS7      -0.063000
      8 C6           3.4030    -0.0000     0.7210 ca         1 SS7      -0.153600
      9 C7           3.3010    -0.0000    -0.7530 c          1 SS7       0.717100
     10 O10          4.2350    -0.0010    -1.5290 o          1 SS7      -0.561000
     11 N9           2.0000    -0.0060    -1.0930 n          1 SS7      -0.491400
     12 C12          1.5020    -0.0150    -2.4710 c3         1 SS7       0.125700
     13 C14          2.0070     1.2300    -3.2020 c3         1 SS7      -0.112100
     14 C13          2.0070    -1.2690    -3.1880 c3         1 SS7       0.124400
     15 O15          3.4310    -1.2110    -3.3000 os         1 SS7      -0.324900
     16 C16          4.0430    -2.2570    -3.9170 ca         1 SS7       0.108100
     17 C17          4.2500    -2.2280    -5.2890 ca         1 SS7      -0.080800
     18 C22          3.7960    -1.0380    -6.0940 c3         1 SS7      -0.043300
     19 C18          4.8730    -3.2900    -5.9150 ca         1 SS7      -0.126500
     20 C21          4.4670    -3.3490    -3.1750 ca         1 SS7      -0.080800
     21 C23          4.2480    -3.3770    -1.6840 c3         1 SS7      -0.043300
     22 C20          5.0890    -4.4110    -3.8010 ca         1 SS7      -0.126500
     23 C19          5.2910    -4.3850    -5.1730 ca         1 SS7       0.106100
     24 O24          5.9030    -5.4310    -5.7900 os         1 SS7      -0.342200
     25 C25          5.2260    -6.5880    -5.8440 c          1 SS7       0.625100
     26 O27          4.0850    -6.6390    -5.4510 o          1 SS7      -0.529000
     27 C26          5.8890    -7.8240    -6.3950 c3         1 SS7      -0.138100
     28 H1           0.8210     0.0010     2.9380 ha         1 SS7       0.150500
     29 H2           2.7170     0.0020     4.5170 ha         1 SS7       0.141000
     30 H3           5.0290     0.0020     3.6830 ha         1 SS7       0.141000
     31 H4           5.4800     0.0020     1.2560 ha         1 SS7       0.150500
     32 H5           0.4190    -0.0150    -2.4630 h1         1 SS7       0.092700
     33 H6           3.0870     1.1930    -3.2750 hc         1 SS7       0.054700
     34 H7           1.5790     1.2620    -4.1970 hc         1 SS7       0.054700
     35 H8           1.7110     2.1160    -2.6530 hc         1 SS7       0.054700
     36 H9           1.5690    -1.3200    -4.1770 h1         1 SS7       0.041700
     37 H10          1.7250    -2.1480    -2.6210 h1         1 SS7       0.041700
     38 H11          2.7160    -1.0480    -6.1750 hc         1 SS7       0.046867
     39 H12          4.2330    -1.0850    -7.0840 hc         1 SS7       0.046867
     40 H13          4.1130    -0.1270    -5.6020 hc         1 SS7       0.046867
     41 H14          5.0320    -3.2680    -6.9860 ha         1 SS7       0.142500
     42 H15          4.6710    -4.2860    -1.2740 hc         1 SS7       0.046867
     43 H16          4.7290    -2.5190    -1.2310 hc         1 SS7       0.046867
     44 H17          3.1850    -3.3480    -1.4750 hc         1 SS7       0.046867
     45 H18          5.4180    -5.2650    -3.2220 ha         1 SS7       0.142500
     46 H19          6.6650    -8.1520    -5.7130 hc         1 SS7       0.070700
     47 H20          6.3280    -7.5990    -7.3590 hc         1 SS7       0.070700
     48 H21          5.1520    -8.6100    -6.5080 hc         1 SS7       0.070700
@<TRIPOS>BOND
     1     4     5 ar
     2     4     3 ar
     3     5     6 ar
     4     1     2 2
     5     3     2 1
     6     3     8 ar
     7     6     7 ar
     8     2    11 1
     9     8     7 ar
    10     8     9 1
    11    21    20 1
    12    11    12 1
    13    11     9 1
    14    12    14 1
    15    12    13 1
    16     9    10 2
    17    15    14 1
    18    15    16 1
    19    20    16 ar
    20    20    22 ar
    21    16    17 ar
    22    22    23 ar
    23    17    18 1
    24    17    19 ar
    25    27    25 1
    26    23    19 ar
    27    23    24 1
    28    25    24 1
    29    25    26 2
    30     4    28 1
    31     5    29 1
    32     6    30 1
    33     7    31 1
    34    12    32 1
    35    13    33 1
    36    13    34 1
    37    13    35 1
    38    14    36 1
    39    14    37 1
    40    18    38 1
    41    18    39 1
    42    18    40 1
    43    19    41 1
    44    21    42 1
    45    21    43 1
    46    21    44 1
    47    22    45 1
    48    27    46 1
    49    27    47 1
    50    27    48 1
@<TRIPOS>SUBSTRUCTURE
     1 SS7         1 TEMP              0 ****  ****    0 ROOT
