@<TRIPOS>MOLECULE
SS8
   29    31     1     0     0
SMALL
bcc


@<TRIPOS>ATOM
      1 C1          0.5220   -0.7450    0.0520 c         1 SS8      0.931200
      2 O2          1.7480   -0.7630   -0.2530 o         1 SS8     -0.817300
      3 O3          0.0490   -0.9530    1.1980 o         1 SS8     -0.817300
      4 C4         -0.4640   -0.4450   -1.0690 cc        1 SS8     -0.095900
      5 N5         -0.0190   -0.1960   -2.3740 na        1 SS8     -0.131100
      6 C6         -1.1210    0.0370   -3.1650 cc        1 SS8     -0.243600
      7 C7         -2.2950   -0.0680   -2.3250 cd        1 SS8      0.195000
      8 C8         -1.8800   -0.3710   -1.0060 cd        1 SS8     -0.254300
      9 O9         -3.4360    0.1620   -3.0750 os        1 SS8     -0.342800
     10 C10        -2.9780    0.4150   -4.3770 cd        1 SS8      0.238600
     11 C11        -1.5910    0.3540   -4.4890 cc        1 SS8     -0.173100
     12 C12        -0.7580    0.5060   -5.6420 ce        1 SS8     -0.022200
     13 C13        -1.0330    1.0680   -6.8310 cf        1 SS8     -0.173200
     14 C14        -2.2430    1.7460   -7.2610 ca        1 SS8     -0.029800
     15 C15        -2.9160    2.6560   -6.4320 ca        1 SS8     -0.127500
     16 C16        -4.0410    3.3340   -6.8960 ca        1 SS8     -0.135000
     17 C17        -4.5140    3.1100   -8.1880 ca        1 SS8     -0.144000
     18 C18        -3.8530    2.2070   -9.0200 ca        1 SS8     -0.135000
     19 C19        -2.7230    1.5320   -8.5630 ca        1 SS8     -0.127500
     20 H8         -2.4780   -0.5220   -0.1150 ha        1 SS8      0.167000
     21 H10        -3.7720    0.6060   -5.0910 h4        1 SS8      0.041100
     22 H12         0.2550    0.0760   -5.5040 ha        1 SS8      0.122000
     23 H13        -0.2520    1.0310   -7.6140 ha        1 SS8      0.116000
     24 H15        -2.5470    2.8250   -5.4070 ha        1 SS8      0.140500
     25 H16        -4.5580    4.0460   -6.2360 ha        1 SS8      0.124000
     26 H17        -5.4040    3.6440   -8.5500 ha        1 SS8      0.121000
     27 H18        -4.2240    2.0250  -10.0390 ha        1 SS8      0.124000
     28 H19        -2.2020    0.8230   -9.2230 ha        1 SS8      0.140500
     29 HN5         0.9310   -0.2000   -2.6380 hn        1 SS8      0.310700
@<TRIPOS>BOND
     1    1    2 1   
     2    1    3 1   
     3    1    4 1   
     4    4    5 1   
     5    4    8 2   
     6    5    6 1   
     7    5   29 1   
     8    6    7 2   
     9    6   11 1   
    10    7    8 1   
    11    7    9 1   
    12    8   20 1   
    13    9   10 1   
    14   10   11 2   
    15   10   21 1   
    16   11   12 1   
    17   12   13 2   
    18   12   22 1   
    19   13   14 1   
    20   13   23 1   
    21   14   15 ar  
    22   14   19 ar  
    23   15   16 ar  
    24   15   24 1   
    25   16   17 ar  
    26   16   25 1   
    27   17   18 ar  
    28   17   26 1   
    29   18   19 ar  
    30   18   27 1   
    31   19   28 1   
@<TRIPOS>SUBSTRUCTURE
     1 SS8         1 TEMP              0 ****  ****    0 ROOT
