@<TRIPOS>MOLECULE
molecule
   32    31     1     0     0
SMALL
bcc


@<TRIPOS>ATOM
      1 C2           0.0000     0.0000     0.0000 c3         1 SS9       0.090800
      2 C3           1.5300     0.0000     0.0000 c3         1 SS9      -0.115400
      3 C4           2.0390     0.0000     1.4430 c3         1 SS9       0.168800
      4 C6           4.0350     0.0000     2.8140 c3         1 SS9       0.155800
      5 C7           5.5640     0.0010     2.7730 c3         1 SS9      -0.080400
      6 C8           6.1130     0.0020     4.2020 c3         1 SS9      -0.080400
      7 C9           7.6420     0.0020     4.1610 c3         1 SS9      -0.064400
      8 C10          8.1900     0.0020     5.5900 c3         1 SS9       0.040700
      9 N1          -0.4890    -0.0000    -1.3860 nz         1 SS9      -0.809600
     10 N5           3.5080     0.0000     1.4430 n7         1 SS9      -0.815200
     11 S11         10.0040     0.0020     5.5420 sh         1 SS9      -0.424900
     12 H1          -0.3610    -0.8840     0.5110 hx         1 SS9       0.112700
     13 H2          -0.3610     0.8850     0.5100 hx         1 SS9       0.112700
     14 H3           1.8910     0.8850    -0.5110 hc         1 SS9       0.072700
     15 H4           1.8910    -0.8850    -0.5110 hc         1 SS9       0.072700
     16 H5           1.6780     0.8840     1.9530 h1         1 SS9       0.045700
     17 H6           1.6780    -0.8850     1.9530 h1         1 SS9       0.045700
     18 H7           3.6870     0.8850     3.3340 h1         1 SS9       0.040200
     19 H8           3.6870    -0.8840     3.3340 h1         1 SS9       0.040200
     20 H9           5.9120    -0.8840     2.2530 hc         1 SS9       0.054700
     21 H10          5.9110     0.8850     2.2530 hc         1 SS9       0.054700
     22 H11          5.7660    -0.8830     4.7220 hc         1 SS9       0.045200
     23 H12          5.7650     0.8860     4.7220 hc         1 SS9       0.045200
     24 H13          7.9900    -0.8820     3.6400 hc         1 SS9       0.059700
     25 H14          7.9890     0.8870     3.6410 hc         1 SS9       0.059700
     26 H15          7.8430    -0.8830     6.1100 h1         1 SS9       0.056200
     27 H16          7.8420     0.8860     6.1100 h1         1 SS9       0.056200
     28 H17         -0.1950    -0.8400    -1.8430 hn         1 SS9       0.458133
     29 H18         -1.4890     0.0470    -1.3860 hn         1 SS9       0.458133
     30 H20          3.8420    -0.8090     0.9570 hn         1 SS9       0.358800
     31 H22         10.4800     0.0020     6.7810 hs         1 SS9       0.226800
     32 H131        -0.1180     0.7920    -1.8710 hn         1 SS9       0.458133
@<TRIPOS>BOND
     1    11     8 1
     2     7     8 1
     3     7     6 1
     4     1     9 1
     5     1     2 1
     6     5     6 1
     7     5     4 1
     8     3     2 1
     9     3    10 1
    10     4    10 1
    11     1    12 1
    12     1    13 1
    13     2    14 1
    14     2    15 1
    15     3    16 1
    16     3    17 1
    17     4    18 1
    18     4    19 1
    19     5    20 1
    20     5    21 1
    21     6    22 1
    22     6    23 1
    23     7    24 1
    24     7    25 1
    25     8    26 1
    26     8    27 1
    27     9    28 1
    28     9    29 1
    29    10    30 1
    30    11    31 1
    31    32     9 1
@<TRIPOS>SUBSTRUCTURE
     1 SS9         1 TEMP              0 ****  ****    0 ROOT
