@<TRIPOS>MOLECULE
molecule
   49    51     1     0     0
SMALL
bcc


@<TRIPOS>ATOM
      1 N10          0.0000     0.0000     0.0000 nz         1 SSA      -0.800600
      2 CA           1.4680     0.0000     0.0000 c3         1 SSA       0.025500
      3 CB           1.9780     0.0000     1.4420 c3         1 SSA       0.121400
      4 OG           1.5020     1.1670     2.1160 oh         1 SSA      -0.625800
      5 C9           1.9710    -1.2300    -0.7110 c          1 SSA       0.666100
      6 O9           1.3160    -2.2500    -0.6930 o          1 SSA      -0.514100
      7 N8           3.1480    -1.1970    -1.3650 ns         1 SSA      -0.652300
      8 S1           3.7000    -2.5490    -2.1450 s6         1 SSA       1.634100
      9 O1S          4.8520    -2.1360    -2.8650 o          1 SSA      -0.600800
     10 O2S          3.6630    -3.5930    -1.1820 o          1 SSA      -0.600800
     11 O5'          2.6660    -2.9210    -3.1980 os         1 SSA      -0.502500
     12 C5'          3.0290    -2.2330    -4.3960 c3         1 SSA       0.120400
     13 C4'          2.0250    -2.5650    -5.5010 c3         1 SSA       0.131100
     14 O4'          0.7140    -2.1200    -5.1170 os         1 SSA      -0.424600
     15 C3'          2.4050    -1.8210    -6.7950 c3         1 SSA       0.090100
     16 O3'          2.6600    -2.7450    -7.8540 oh         1 SSA      -0.556800
     17 C2'          1.1540    -0.9600    -7.1150 c3         1 SSA       0.097100
     18 O2'          0.8740    -0.9700    -8.5160 oh         1 SSA      -0.545800
     19 C1'          0.0430    -1.6960    -6.3230 c3         1 SSA       0.260800
     20 N9          -1.0590    -0.7850    -6.0080 na         1 SSA      -0.250000
     21 C8          -1.1330     0.0490    -4.9320 cc         1 SSA       0.394700
     22 N7          -2.2510     0.7160    -4.9620 nd         1 SSA      -0.585100
     23 C5          -2.9620     0.3530    -6.0570 ca         1 SSA      -0.213200
     24 C6          -4.2050     0.7270    -6.5970 ca         1 SSA       0.792200
     25 N6          -4.9940     1.6730    -5.9670 nv         1 SSA      -0.995500
     26 N1          -4.6050     0.1490    -7.7240 nb         1 SSA      -0.812000
     27 C2          -3.8600    -0.7560    -8.3310 ca         1 SSA       0.755900
     28 N3          -2.6900    -1.1360    -7.8620 nb         1 SSA      -0.778000
     29 C4          -2.2030    -0.6090    -6.7440 ca         1 SSA       0.492800
     30 HN11        -0.3340    -0.8190    -0.4690 hn         1 SSA       0.472133
     31 HN12        -0.3340     0.8150    -0.4750 hn         1 SSA       0.472133
     32 HA           1.8290     0.8850    -0.5100 hx         1 SSA       0.128700
     33 HB1          3.0610     0.0000     1.4420 h1         1 SSA       0.080200
     34 HB2          1.6170    -0.8850     1.9530 h1         1 SSA       0.080200
     35 HOG          1.9680     1.2730     2.9280 ho         1 SSA       0.460000
     36 HN8          3.7000    -0.3620    -1.3610 hn         1 SSA       0.357500
     37 H5'1         3.0260    -1.1650    -4.2140 h1         1 SSA       0.077200
     38 H5'2         4.0200    -2.5430    -4.7040 h1         1 SSA       0.077200
     39 H4'          2.0100    -3.6320    -5.6830 h1         1 SSA       0.108700
     40 H3'          3.2650    -1.1850    -6.6240 h1         1 SSA       0.047700
     41 HO3'         3.5500    -2.6470    -8.1490 ho         1 SSA       0.417000
     42 H2'          1.2810     0.0510    -6.7470 h1         1 SSA       0.053700
     43 HO2'         1.1890    -0.1710    -8.9050 ho         1 SSA       0.414000
     44 H1'         -0.3130    -2.5540    -6.8800 h2         1 SSA       0.131700
     45 H8          -0.3740     0.1420    -4.1650 h5         1 SSA       0.050800
     46 HN61        -4.9740     1.7580    -4.9700 hn         1 SSA       0.451300
     47 HN62        -5.6120     2.2470    -6.5060 hn         1 SSA       0.451300
     48 H2          -4.2370    -1.2040    -9.2430 h5         1 SSA       0.075100
     49 H103        -0.3340     0.0080     0.9440 hn         1 SSA       0.472133
@<TRIPOS>BOND
     1     1     2 1
     2     1    30 1
     3     1    31 1
     4     2     3 1
     5     2     5 1
     6     2    32 1
     7     3     4 1
     8     3    33 1
     9     3    34 1
    10     4    35 1
    11     5     6 2
    12     5     7 1
    13     7     8 1
    14     7    36 1
    15     8     9 2
    16     8    10 2
    17     8    11 1
    18    11    12 1
    19    12    13 1
    20    12    37 1
    21    12    38 1
    22    13    14 1
    23    13    15 1
    24    13    39 1
    25    14    19 1
    26    15    16 1
    27    15    17 1
    28    15    40 1
    29    16    41 1
    30    17    18 1
    31    17    19 1
    32    17    42 1
    33    18    43 1
    34    19    20 1
    35    19    44 1
    36    20    21 1
    37    20    29 1
    38    21    22 2
    39    21    45 1
    40    22    23 1
    41    23    24 ar
    42    23    29 ar
    43    24    25 1
    44    24    26 ar
    45    25    46 1
    46    25    47 1
    47    26    27 ar
    48    27    28 ar
    49    27    48 1
    50    28    29 ar
    51    49     1 1
@<TRIPOS>SUBSTRUCTURE
     1 SSA         1 TEMP              0 ****  ****    0 ROOT
