@<TRIPOS>MOLECULE
molecule
   26    26     1     0     0
SMALL
bcc


@<TRIPOS>ATOM
      1 S1           0.0000     0.0000     0.0000 s4         1 SSB       0.230600
      2 C2           1.8340     0.0000     0.0000 c3         1 SSB      -0.055100
      3 C3           2.2310     0.0000     1.4850 c3         1 SSB      -0.061700
      4 C4           1.0190     0.0710     2.4150 c3         1 SSB      -0.068400
      5 C5          -0.1880    -0.6170     1.7230 c3         1 SSB      -0.055100
      6 O6          -0.4750    -0.9830    -0.9100 o          1 SSB      -0.508200
      7 C7           3.1340     1.2050     1.7560 c3         1 SSB      -0.075400
      8 C8           4.4570     1.0300     1.0070 c3         1 SSB      -0.082400
      9 C9           5.3600     2.2350     1.2780 c3         1 SSB      -0.084400
     10 C10          6.6840     2.0590     0.5310 c3         1 SSB      -0.092100
     11 H21          2.2090     0.8910    -0.4890 h1         1 SSB       0.084700
     12 H22          2.2090    -0.8910    -0.4890 h1         1 SSB       0.084700
     13 H3           2.7800    -0.9090     1.6980 hc         1 SSB       0.057700
     14 H41          1.2450    -0.4400     3.3430 hc         1 SSB       0.051200
     15 H42          0.7780     1.1080     2.6150 hc         1 SSB       0.051200
     16 H51         -0.0930    -1.6960     1.7610 h1         1 SSB       0.084200
     17 H52         -1.1240    -0.2840     2.1550 h1         1 SSB       0.084200
     18 H71          3.3270     1.2800     2.8190 hc         1 SSB       0.042200
     19 H72          2.6430     2.1090     1.4140 hc         1 SSB       0.042200
     20 H81          4.9490     0.1270     1.3490 hc         1 SSB       0.044200
     21 H82          4.2640     0.9550    -0.0560 hc         1 SSB       0.044200
     22 H91          5.5530     2.3100     2.3420 hc         1 SSB       0.039200
     23 H92          4.8690     3.1380     0.9360 hc         1 SSB       0.039200
     24 H101         6.4900     1.9750    -0.5320 hc         1 SSB       0.033700
     25 H102         7.1790     1.1610     0.8800 hc         1 SSB       0.033700
     26 H103         7.3190     2.9170     0.7150 hc         1 SSB       0.033700
@<TRIPOS>BOND
     1     1     2 1
     2     1     5 1
     3     1     6 2
     4     2     3 1
     5     2    11 1
     6     2    12 1
     7     3     4 1
     8     3     7 1
     9     3    13 1
    10     4     5 1
    11     4    14 1
    12     4    15 1
    13     5    16 1
    14     5    17 1
    15     7     8 1
    16     7    18 1
    17     7    19 1
    18     8     9 1
    19     8    20 1
    20     8    21 1
    21     9    10 1
    22     9    22 1
    23     9    23 1
    24    10    24 1
    25    10    25 1
    26    10    26 1
@<TRIPOS>SUBSTRUCTURE
     1 SSB         1 TEMP              0 ****  ****    0 ROOT
