@<TRIPOS>MOLECULE
SSB
   26    26     1     0     0
SMALL
bcc


@<TRIPOS>ATOM
      1 S1         -0.0230   -0.3440   -0.0590 s4        1 SSB      0.224600
      2 C2          1.6630    0.1710   -0.0070 c3        1 SSB     -0.077100
      3 C3          2.1800    0.0830    1.4170 c3        1 SSB     -0.047700
      4 C4          0.9780    0.1230    2.3620 c3        1 SSB     -0.061400
      5 C5         -0.1930   -0.5480    1.6850 c3        1 SSB     -0.080100
      6 O6         -0.0250   -1.7190   -0.6380 o         1 SSB     -0.502200
      7 C7          3.1680    1.1850    1.7540 c3        1 SSB     -0.070400
      8 C8          4.4610    1.0370    0.9820 c3        1 SSB     -0.080400
      9 C9          5.4270    2.1570    1.3070 c3        1 SSB     -0.079400
     10 C10         6.7190    2.0100    0.5460 c3        1 SSB     -0.093100
     11 H21         1.7110    1.2250   -0.3760 h1        1 SSB      0.089200
     12 H22         2.2980   -0.4460   -0.6870 h1        1 SSB      0.089200
     13 H3          2.6990   -0.9090    1.5470 hc        1 SSB      0.062700
     14 H41         1.2310   -0.3880    3.3250 hc        1 SSB      0.050200
     15 H42         0.7240    1.1870    2.6090 hc        1 SSB      0.050200
     16 H51        -0.2370   -1.6310    1.9590 h1        1 SSB      0.090200
     17 H52        -1.1560   -0.0880    2.0130 h1        1 SSB      0.090200
     18 H71         2.7100    2.1860    1.5330 hc        1 SSB      0.041200
     19 H72         3.3840    1.1550    2.8550 hc        1 SSB      0.041200
     20 H81         4.2420    1.0340   -0.1180 hc        1 SSB      0.042700
     21 H82         4.9360    0.0500    1.2270 hc        1 SSB      0.042700
     22 H91         4.9530    3.1430    1.0570 hc        1 SSB      0.038200
     23 H92         5.6360    2.1620    2.4090 hc        1 SSB      0.038200
     24 H101        7.2190    1.0440    0.8020 hc        1 SSB      0.033700
     25 H102        7.4150    2.8450    0.7980 hc        1 SSB      0.033700
     26 H103        6.5330    2.0250   -0.5550 hc        1 SSB      0.033700
@<TRIPOS>BOND
     1    1    2 1   
     2    1    5 1   
     3    1    6 2   
     4    2    3 1   
     5    2   11 1   
     6    2   12 1   
     7    3    4 1   
     8    3    7 1   
     9    3   13 1   
    10    4    5 1   
    11    4   14 1   
    12    4   15 1   
    13    5   16 1   
    14    5   17 1   
    15    7    8 1   
    16    7   18 1   
    17    7   19 1   
    18    8    9 1   
    19    8   20 1   
    20    8   21 1   
    21    9   10 1   
    22    9   22 1   
    23    9   23 1   
    24   10   24 1   
    25   10   25 1   
    26   10   26 1   
@<TRIPOS>SUBSTRUCTURE
     1 SSB         1 TEMP              0 ****  ****    0 ROOT
