@<TRIPOS>MOLECULE
molecule
   21    21     1     0     0
SMALL
bcc


@<TRIPOS>ATOM
      1 NS           0.0000     0.0000     0.0000 n7         1 SSC      -0.733200
      2 C1S          1.4750     0.0000     0.0000 c3         1 SSC       0.057500
      3 CS           1.9900    -1.2320    -0.6970 c          1 SSC       0.902600
      4 O1S          1.3260    -2.2420    -0.7070 o          1 SSC      -0.857300
      5 O2S          3.1850    -1.2090    -1.3070 o          1 SSC      -0.857300
      6 CSS          1.9330     0.0000     1.4730 c3         1 SSC      -0.079400
      7 C3S          0.7030     0.5740     2.2220 c3         1 SSC      -0.138400
      8 C4S         -0.4680    -0.0210     1.4010 c3         1 SSC       0.189500
      9 C5S         -1.7210     0.8420     1.5580 c3         1 SSC      -0.193400
     10 C6S         -2.8360     0.2670     0.7220 c          1 SSC       0.883600
     11 O3S         -4.0370     0.8630     0.7040 o          1 SSC      -0.851800
     12 O4S         -2.6470    -0.7320     0.0690 o          1 SSC      -0.851800
     13 HNS         -0.3340     0.8290    -0.4510 hn         1 SSC       0.325800
     14 H1S          1.8420     0.8900    -0.4970 h1         1 SSC       0.010700
     15 HSS1         2.1460    -1.0090     1.8060 hc         1 SSC       0.028700
     16 HSS2         2.7940     0.6440     1.6050 hc         1 SSC       0.028700
     17 H3S1         0.6750     0.2200     3.2460 hc         1 SSC       0.013200
     18 H3S2         0.6940     1.6560     2.1770 hc         1 SSC       0.013200
     19 H4S         -0.6650    -1.0390     1.7140 h1         1 SSC       0.077700
     20 H5S1        -1.5080     1.8520     1.2290 hc         1 SSC       0.015700
     21 H5S2        -2.0210     0.8570     2.5980 hc         1 SSC       0.015700
@<TRIPOS>BOND
     1     1     2 1
     2     1     8 1
     3     1    13 1
     4     2     3 1
     5     2     6 1
     6     2    14 1
     7     3     4 1
     8     3     5 1
     9     6     7 1
    10     6    15 1
    11     6    16 1
    12     7     8 1
    13     7    17 1
    14     7    18 1
    15     8     9 1
    16     8    19 1
    17     9    10 1
    18     9    20 1
    19     9    21 1
    20    10    11 1
    21    10    12 1
@<TRIPOS>SUBSTRUCTURE
     1 SSC         1 TEMP              0 ****  ****    0 ROOT
