@<TRIPOS>MOLECULE
molecule
   39    41     1     0     0
SMALL
bcc


@<TRIPOS>ATOM
      1 C1           0.0000     0.0000     0.0000 cc         1 SSF      -0.168000
      2 C2           1.3510     0.0000     0.0000 cd         1 SSF      -0.068300
      3 C3           1.3800     0.0000     2.3740 cd         1 SSF      -0.085300
      4 C4          -0.0250     0.0000     2.3910 cd         1 SSF      -0.092000
      5 C5          -0.7090     0.0000     1.2110 cc         1 SSF      -0.150000
      6 C10          2.3290     0.0010     3.4020 cc         1 SSF       0.004100
      7 C11          3.4020    -0.0000     1.4350 cd         1 SSF      -0.212300
      8 C12          3.5810     0.0010     2.8180 cc         1 SSF      -0.074200
      9 C13          4.9010     0.0030     3.5440 c3         1 SSF      -0.024900
     10 C17          4.4310    -0.0000     0.4680 c          1 SSF       0.612900
     11 C18          5.0440    -1.2760     0.0410 ca         1 SSF      -0.228600
     12 C19          4.5320    -2.4910     0.5150 ca         1 SSF      -0.105000
     13 C20          6.1260    -1.2690    -0.8360 ca         1 SSF      -0.023000
     14 C21          5.0970    -3.6810     0.1230 ca         1 SSF      -0.199000
     15 C23          6.6990    -2.4750    -1.2350 ca         1 SSF      -0.139600
     16 C25          6.1830    -3.6890    -0.7480 ca         1 SSF       0.223600
     17 O27          4.8140     1.0520    -0.0160 o          1 SSF      -0.522100
     18 C28          7.8440    -2.4770    -2.1630 c          1 SSF       0.883200
     19 O29          8.2630    -1.3230    -2.7200 o          1 SSF      -0.831300
     20 O30          8.4120    -3.5190    -2.4250 o          1 SSF      -0.831300
     21 N31          6.7490    -4.8900    -1.1400 nv         1 SSF      -0.962200
     22 N34          2.0480     0.0000     1.1740 na         1 SSF       0.109700
     23 O35          2.0660     0.0030     4.7390 os         1 SSF      -0.320900
     24 C36          1.9410    -1.2700     5.3770 c3         1 SSF       0.126700
     25 H1          -0.5390     0.0000    -0.9400 ha         1 SSF       0.143000
     26 H2           1.8870    -0.0000    -0.9420 h4         1 SSF       0.176000
     27 H4          -0.5600     0.0000     3.3330 ha         1 SSF       0.144000
     28 H5          -1.7920     0.0000     1.2090 ha         1 SSF       0.129000
     29 H13          5.6500     0.4870     2.9300 hc         1 SSF       0.048700
     30 H13A         4.7980     0.5400     4.4790 hc         1 SSF       0.048700
     31 H13B         5.2040    -1.0180     3.7450 hc         1 SSF       0.048700
     32 H19          3.6830    -2.4920     1.1880 ha         1 SSF       0.113000
     33 H20          6.4590    -0.3380    -1.2780 ha         1 SSF       0.177000
     34 H21          4.6950    -4.6160     0.4930 ha         1 SSF       0.114000
     35 HN31         7.4680    -5.3090    -0.5840 hn         1 SSF       0.424800
     36 HN3A         6.4060    -5.3620    -1.9530 hn         1 SSF       0.424800
     37 H36          1.8890    -2.0480     4.6250 h1         1 SSF       0.029700
     38 H36A         1.0390    -1.2860     5.9770 h1         1 SSF       0.029700
     39 H36B         2.8010    -1.4410     6.0140 h1         1 SSF       0.029700
@<TRIPOS>BOND
     1     1     2 2
     2     1     5 1
     3     2    22 1
     4     3     4 1
     5     3     6 2
     6     3    22 1
     7     4     5 2
     8     6     8 1
     9     6    23 1
    10     7     8 2
    11     7    10 1
    12     7    22 1
    13     8     9 1
    14    10    11 1
    15    10    17 2
    16    11    12 ar
    17    11    13 ar
    18    12    14 ar
    19    13    15 ar
    20    14    16 ar
    21    15    16 ar
    22    15    18 1
    23    16    21 1
    24    18    19 1
    25    18    20 1
    26    23    24 1
    27     1    25 1
    28     2    26 1
    29     4    27 1
    30     5    28 1
    31     9    29 1
    32     9    30 1
    33     9    31 1
    34    12    32 1
    35    13    33 1
    36    14    34 1
    37    21    35 1
    38    21    36 1
    39    24    37 1
    40    24    38 1
    41    24    39 1
@<TRIPOS>SUBSTRUCTURE
     1 SSF         1 TEMP              0 ****  ****    0 ROOT
