@<TRIPOS>MOLECULE
molecule
   23    22     1     0     0
SMALL
bcc


@<TRIPOS>ATOM
      1 O2           0.0000     0.0000     0.0000 o          1 SSH      -0.841800
      2 C1           1.3430     0.0000     0.0000 c          1 SSH       0.869600
      3 O1           1.9460     0.0010    -1.0470 o          1 SSH      -0.841800
      4 C2           2.0960     0.0000     1.3050 c3         1 SSH       0.036100
      5 C3           1.8230     1.3070     2.0530 c3         1 SSH      -0.059400
      6 C4           2.4860     1.2540     3.4300 c3         1 SSH       0.138100
      7 O4           1.8700     0.2330     4.2170 oh         1 SSH      -0.609800
      8 C5           2.3190     2.6060     4.1290 c3         1 SSH       0.140100
      9 O5           2.9350     3.6270     3.3420 oh         1 SSH      -0.595800
     10 C6           2.9830     2.5540     5.5060 c3         1 SSH       0.109400
     11 O6           2.7270     3.7740     6.2040 oh         1 SSH      -0.618800
     12 OT           3.4970    -0.1170     1.0470 oh         1 SSH      -0.623800
     13 H2C1         1.7700    -0.8370     1.9100 h1         1 SSH       0.021700
     14 H3C1         0.7540     1.4380     2.1710 hc         1 SSH       0.072200
     15 H3C2         2.2280     2.1380     1.4880 hc         1 SSH       0.072200
     16 H4           3.5400     1.0350     3.3150 h1         1 SSH       0.050700
     17 HA           2.5160    -0.4100     4.4600 ho         1 SSH       0.391000
     18 H5           1.2640     2.8250     4.2440 h1         1 SSH       0.052700
     19 HB           2.4210     4.4160     3.3920 ho         1 SSH       0.404000
     20 H6C1         2.5780     1.7230     6.0710 h1         1 SSH       0.027700
     21 H6C2         4.0510     2.4230     5.3870 h1         1 SSH       0.027700
     22 H6           3.0820     3.7170     7.0760 ho         1 SSH       0.391000
     23 HT           3.7070    -1.0140     0.8490 ho         1 SSH       0.388000
@<TRIPOS>BOND
     1     1     2 1
     2     2     3 1
     3     2     4 1
     4     4     5 1
     5     4    12 1
     6     4    13 1
     7     5     6 1
     8     5    14 1
     9     5    15 1
    10     6     7 1
    11     6     8 1
    12     6    16 1
    13     7    17 1
    14     8     9 1
    15     8    10 1
    16     8    18 1
    17     9    19 1
    18    10    11 1
    19    10    20 1
    20    10    21 1
    21    11    22 1
    22    12    23 1
@<TRIPOS>SUBSTRUCTURE
     1 SSH         1 TEMP              0 ****  ****    0 ROOT
