@<TRIPOS>MOLECULE
SSH
   23    22     1     0     0
SMALL
bcc


@<TRIPOS>ATOM
      1 O2          0.0680    0.0380   -0.1040 o         1 SSH     -0.830800
      2 C1          1.3070   -0.1330    0.0320 c         1 SSH      0.898600
      3 O1          2.1350   -0.2900   -0.9110 o         1 SSH     -0.830800
      4 C2          1.8930   -0.1700    1.4690 c3        1 SSH      0.005100
      5 C3          1.7800    1.2040    2.1190 c3        1 SSH     -0.110400
      6 C4          2.6860    1.3630    3.3320 c3        1 SSH      0.156100
      7 O4          2.5370    0.2980    4.2670 oh        1 SSH     -0.639800
      8 C5          2.3560    2.6600    4.0960 c3        1 SSH      0.145100
      9 O5          2.9670    3.7220    3.3750 oh        1 SSH     -0.598800
     10 C6          2.9050    2.6090    5.5250 c3        1 SSH      0.094400
     11 O6          2.6010    3.8630    6.1250 oh        1 SSH     -0.625800
     12 OT          3.2440   -0.6050    1.4760 oh        1 SSH     -0.661800
     13 H2C1        1.3250   -0.9280    2.0780 h1        1 SSH      0.034700
     14 H3C1        2.0580    1.9970    1.3780 hc        1 SSH      0.058200
     15 H3C2        0.7070    1.3580    2.4030 hc        1 SSH      0.058200
     16 H4          3.7600    1.3950    2.9920 h1        1 SSH      0.054700
     17 HA          2.6740   -0.5160    3.7630 ho        1 SSH      0.430000
     18 H5          1.2440    2.8210    4.1320 h1        1 SSH      0.048700
     19 HB          2.7780    4.5260    3.8740 ho        1 SSH      0.404000
     20 H6C1        2.4150    1.7760    6.0930 h1        1 SSH      0.042200
     21 H6C2        4.0150    2.4540    5.5070 h1        1 SSH      0.042200
     22 H6          2.9480    3.8260    7.0220 ho        1 SSH      0.393000
     23 HT          3.5580   -0.5650    0.5570 ho        1 SSH      0.433000
@<TRIPOS>BOND
     1    1    2 1   
     2    2    3 1   
     3    2    4 1   
     4    4    5 1   
     5    4   12 1   
     6    4   13 1   
     7    5    6 1   
     8    5   14 1   
     9    5   15 1   
    10    6    7 1   
    11    6    8 1   
    12    6   16 1   
    13    7   17 1   
    14    8    9 1   
    15    8   10 1   
    16    8   18 1   
    17    9   19 1   
    18   10   11 1   
    19   10   20 1   
    20   10   21 1   
    21   11   22 1   
    22   12   23 1   
@<TRIPOS>SUBSTRUCTURE
     1 SSH         1 TEMP              0 ****  ****    0 ROOT
