@<TRIPOS>MOLECULE
SSI
   36    37     1     0     0
SMALL
bcc


@<TRIPOS>ATOM
      1 P            0.0000     0.0000     0.0000 p5         1 SSI       0.444700
      2 N1           1.4130    -3.1160    -7.2090 ns         1 SSI       0.002600
      3 C2           1.5450    -3.1930    -5.8590 cc         1 SSI       0.241800
      4 N3           0.5320    -3.4230    -5.0760 nd         1 SSI      -0.405100
      5 C4          -0.7130    -3.5970    -5.5810 cd         1 SSI       0.115400
      6 C5          -0.9100    -3.5290    -6.9650 cc         1 SSI      -0.462900
      7 C6           0.2040    -3.2730    -7.7900 c          1 SSI       0.650100
      8 O6           0.0800    -3.2050    -9.0020 o          1 SSI      -0.766500
      9 N7          -2.2480    -3.7390    -7.2000 na         1 SSI       0.445900
     10 C8          -2.8770    -3.9350    -6.0080 cc         1 SSI      -0.327300
     11 C9          -1.9770    -3.8550    -5.0070 cd         1 SSI      -0.101300
     12 C1'         -2.2680    -4.0130    -3.5370 c3         1 SSI       0.224100
     13 O1P          1.6090     0.0000     0.0000 o          1 SSI      -0.743833
     14 O2P         -0.4940     0.0000     1.3950 o          1 SSI      -0.743833
     15 C3'         -4.1510    -2.9330    -1.2610 c3         1 SSI       0.184400
     16 O3'         -4.7990    -1.7300    -1.6800 oh         1 SSI      -0.564800
     17 O3P         -0.5370     1.3150    -0.7580 o          1 SSI      -0.743833
     18 C4'         -2.6430    -2.8020    -1.4740 c3         1 SSI       0.088500
     19 N4'         -2.3580    -2.6870    -2.9110 n7         1 SSI      -0.530200
     20 C5'         -2.1330    -1.5530    -0.7520 c3         1 SSI       0.025600
     21 C6'         -0.6080    -1.4870    -0.8600 c3         1 SSI      -0.054600
     22 H8          -3.9360    -4.1270    -5.8840 h4         1 SSI       0.137000
     23 H1'         -3.2080    -4.5370    -3.4100 h1         1 SSI      -0.004300
     24 H1'A        -1.4720    -4.5800    -3.0700 h1         1 SSI      -0.004300
     25 H3'         -4.5160    -3.7640    -1.8540 h1         1 SSI      -0.035300
     26 H3'A        -4.3670    -3.1140    -0.2150 h1         1 SSI      -0.035300
     27 HO3'        -5.7190    -1.7820    -1.4820 ho         1 SSI       0.355000
     28 H4'         -2.1440    -3.6780    -1.0760 h1         1 SSI       0.023700
     29 HN4'        -3.0840    -2.1570    -3.3530 hn         1 SSI       0.253800
     30 H5'         -2.4200    -1.5970     0.2910 hc         1 SSI       0.026200
     31 H5'A        -2.5650    -0.6710    -1.2090 hc         1 SSI       0.026200
     32 H6'         -0.3210    -1.4430    -1.9030 hc         1 SSI      -0.001300
     33 H6'A        -0.1760    -2.3700    -0.4040 hc         1 SSI      -0.001300
     34 HN7         -2.6870    -3.7480    -8.0990 hn         1 SSI       0.102700
     35 HN1          2.2180    -2.9420    -7.7770 hn         1 SSI       0.165500
     36 H2           2.5260    -3.0580    -5.4200 h5         1 SSI       0.011800
@<TRIPOS>BOND
     1     1    13 1   
     2     1    14 1   
     3     1    17 1   
     4     1    21 1   
     5     2     3 1   
     6     2     7 1   
     7     2    35 1   
     8     3     4 2   
     9     3    36 1   
    10     4     5 1   
    11     5     6 2   
    12     5    11 1   
    13     6     7 1   
    14     6     9 1   
    15     7     8 2   
    16     9    10 1   
    17     9    34 1   
    18    10    11 2   
    19    10    22 1   
    20    11    12 1   
    21    12    19 1   
    22    12    23 1   
    23    12    24 1   
    24    15    16 1   
    25    15    18 1   
    26    15    25 1   
    27    15    26 1   
    28    16    27 1   
    29    18    19 1   
    30    18    20 1   
    31    18    28 1   
    32    19    29 1   
    33    20    21 1   
    34    20    30 1   
    35    20    31 1   
    36    21    32 1   
    37    21    33 1   
@<TRIPOS>SUBSTRUCTURE
     1 SSI         1 TEMP              0 ****  ****    0 ROOT
