@<TRIPOS>MOLECULE
molecule
   34    35     1     0     0
SMALL
bcc


@<TRIPOS>ATOM
      1 N1           0.0000     0.0000     0.0000 nz         1 SSK      -0.814600
      2 C8           1.4690     0.0000     0.0000 c3         1 SSK       0.165800
      3 C9           1.9710     0.0000     1.4210 ca         1 SSK      -0.235300
      4 C14          3.0660     0.7700     1.7680 ca         1 SSK      -0.130250
      5 C13          3.5270     0.7690     3.0710 ca         1 SSK      -0.078750
      6 C12          2.8930    -0.0020     4.0270 ca         1 SSK      -0.054500
      7 C11          1.7980    -0.7700     3.6810 ca         1 SSK      -0.078750
      8 C10          1.3330    -0.7660     2.3790 ca         1 SSK      -0.130250
      9 C1           1.9780    -1.2490    -0.7220 c3         1 SSK       0.165800
     10 C2           1.4760    -1.2490    -2.1420 ca         1 SSK      -0.235300
     11 C7           0.1840    -1.6530    -2.4180 ca         1 SSK      -0.130250
     12 C6          -0.2770    -1.6530    -3.7210 ca         1 SSK      -0.078750
     13 C5           0.5540    -1.2480    -4.7490 ca         1 SSK      -0.054500
     14 C4           1.8470    -0.8430    -4.4730 ca         1 SSK      -0.078750
     15 C3           2.3070    -0.8390    -3.1690 ca         1 SSK      -0.130250
     16 N2           1.4890    -2.4480    -0.0290 nz         1 SSK      -0.814600
     17 H1          -0.3340    -0.8970     0.2930 hn         1 SSK       0.465633
     18 H2          -0.3340     0.7020     0.6300 hn         1 SSK       0.465633
     19 H4           1.8300     0.8850    -0.5110 hx         1 SSK       0.163700
     20 H5           3.5620     1.3730     1.0180 ha         1 SSK       0.123500
     21 H6           4.3860     1.3720     3.3420 ha         1 SSK       0.181250
     22 H7           3.2550    -0.0040     5.0480 ha         1 SSK       0.187000
     23 H8           1.3000    -1.3720     4.4320 ha         1 SSK       0.181250
     24 H9           0.4740    -1.3690     2.1090 ha         1 SSK       0.123500
     25 H10          3.0620    -1.2490    -0.7220 hx         1 SSK       0.163700
     26 H11         -0.4680    -1.9700    -1.6130 ha         1 SSK       0.123500
     27 H12         -1.2900    -1.9700    -3.9370 ha         1 SSK       0.181250
     28 H13          0.1930    -1.2490    -5.7700 ha         1 SSK       0.187000
     29 H14          2.4980    -0.5240    -5.2770 ha         1 SSK       0.181250
     30 H15          3.3200    -0.5220    -2.9520 ha         1 SSK       0.123500
     31 H16          0.5280    -2.3210     0.2200 hn         1 SSK       0.465633
     32 H17          1.5760    -3.2410    -0.6330 hn         1 SSK       0.465633
     33 H131        -0.3340     0.2070    -0.9200 hn         1 SSK       0.465633
     34 H23          2.0140    -2.5850     0.8130 hn         1 SSK       0.465633
@<TRIPOS>BOND
     1     7     8 ar
     2     7     6 ar
     3     8     3 ar
     4     6     5 ar
     5     3     2 1
     6     3     4 ar
     7     2     1 1
     8     2     9 1
     9     5     4 ar
    10     9    16 1
    11     9    10 1
    12    11    10 ar
    13    11    12 ar
    14    10    15 ar
    15    12    13 ar
    16    15    14 ar
    17    13    14 ar
    18     1    17 1
    19     1    18 1
    20     2    19 1
    21     4    20 1
    22     5    21 1
    23     6    22 1
    24     7    23 1
    25     8    24 1
    26     9    25 1
    27    11    26 1
    28    12    27 1
    29    13    28 1
    30    14    29 1
    31    15    30 1
    32    16    31 1
    33    16    32 1
    34    33     1 1
    35    34    16 1
@<TRIPOS>SUBSTRUCTURE
     1 SSK         1 TEMP              0 ****  ****    0 ROOT
