@<TRIPOS>MOLECULE
SSK
   34    35     1     0     0
SMALL
bcc


@<TRIPOS>ATOM
      1 N1           0.0000     0.0000     0.0000 nz         1 SSK       0.033400
      2 C8           1.4690     0.0000     0.0000 c3         1 SSK       0.020300
      3 C9           1.9710     0.0000     1.4210 ca         1 SSK      -0.263300
      4 C14          3.0660     0.7700     1.7680 ca         1 SSK      -0.099000
      5 C13          3.5270     0.7690     3.0710 ca         1 SSK      -0.037750
      6 C12          2.8930    -0.0020     4.0270 ca         1 SSK      -0.012000
      7 C11          1.7980    -0.7700     3.6810 ca         1 SSK      -0.037750
      8 C10          1.3330    -0.7660     2.3790 ca         1 SSK      -0.099000
      9 C1           1.9780    -1.2490    -0.7220 c3         1 SSK       0.020300
     10 C2           1.4760    -1.2490    -2.1420 ca         1 SSK      -0.263300
     11 C7           0.1840    -1.6530    -2.4180 ca         1 SSK      -0.099000
     12 C6          -0.2770    -1.6530    -3.7210 ca         1 SSK      -0.037750
     13 C5           0.5540    -1.2480    -4.7490 ca         1 SSK      -0.012000
     14 C4           1.8470    -0.8430    -4.4730 ca         1 SSK      -0.037750
     15 C3           2.3070    -0.8390    -3.1690 ca         1 SSK      -0.099000
     16 N2           1.4890    -2.4480    -0.0290 nz         1 SSK       0.033400
     17 H1          -0.3340    -0.8970     0.2930 hn         1 SSK       0.244467
     18 H2          -0.3340     0.7020     0.6300 hn         1 SSK       0.244467
     19 H4           1.8300     0.8850    -0.5110 hx         1 SSK       0.130700
     20 H5           3.5620     1.3730     1.0180 ha         1 SSK       0.099250
     21 H6           4.3860     1.3720     3.3420 ha         1 SSK       0.143250
     22 H7           3.2550    -0.0040     5.0480 ha         1 SSK       0.146000
     23 H8           1.3000    -1.3720     4.4320 ha         1 SSK       0.143250
     24 H9           0.4740    -1.3690     2.1090 ha         1 SSK       0.099250
     25 H10          3.0620    -1.2490    -0.7220 hx         1 SSK       0.130700
     26 H11         -0.4680    -1.9700    -1.6130 ha         1 SSK       0.099250
     27 H12         -1.2900    -1.9700    -3.9370 ha         1 SSK       0.143250
     28 H13          0.1930    -1.2490    -5.7700 ha         1 SSK       0.146000
     29 H14          2.4980    -0.5240    -5.2770 ha         1 SSK       0.143250
     30 H15          3.3200    -0.5220    -2.9520 ha         1 SSK       0.099250
     31 H16          0.5280    -2.3210     0.2200 hn         1 SSK       0.244467
     32 H17          1.5760    -3.2410    -0.6330 hn         1 SSK       0.244467
     33 H131        -0.3340     0.2070    -0.9200 hn         1 SSK       0.244467
     34 H23          2.0140    -2.5850     0.8130 hn         1 SSK       0.244467
@<TRIPOS>BOND
     1     1     2 1   
     2     1    17 1   
     3     1    18 1   
     4     1    33 1   
     5     2     3 1   
     6     2     9 1   
     7     2    19 1   
     8     3     4 ar  
     9     3     8 ar  
    10     4     5 ar  
    11     4    20 1   
    12     5     6 ar  
    13     5    21 1   
    14     6     7 ar  
    15     6    22 1   
    16     7     8 ar  
    17     7    23 1   
    18     8    24 1   
    19     9    10 1   
    20     9    16 1   
    21     9    25 1   
    22    10    11 ar  
    23    10    15 ar  
    24    11    12 ar  
    25    11    26 1   
    26    12    13 ar  
    27    12    27 1   
    28    13    14 ar  
    29    13    28 1   
    30    14    15 ar  
    31    14    29 1   
    32    15    30 1   
    33    16    31 1   
    34    16    32 1   
    35    16    34 1   
@<TRIPOS>SUBSTRUCTURE
     1 SSK         1 TEMP              0 ****  ****    0 ROOT
