@<TRIPOS>MOLECULE
SSL
   66    69     1     0     0
SMALL
bcc


@<TRIPOS>ATOM
      1 OR          0.2020    0.1700    0.5240 oh        1 SSL     -0.400300
      2 ND          1.5080    0.1940    0.2800 n3        1 SSL     -0.458100
      3 CE          2.3030   -0.0350    1.5310 c3        1 SSL      0.166200
      4 CE1         2.0730    1.1770    2.4600 c3        1 SSL     -0.103350
      5 CE2         1.9070   -1.2810    2.3360 c3        1 SSL     -0.103350
      6 CF          3.8110   -0.0930    1.2470 c3        1 SSL     -0.091400
      7 CB          4.1960   -1.0370    0.1060 c3        1 SSL      0.352600
      8 OR2         5.5500   -0.8610   -0.2770 os        1 SSL     -0.445600
      9 CG          6.5130   -1.2050    0.7140 c3        1 SSL      0.121400
     10 C2          6.3550   -2.6580    1.2580 c3        1 SSL      0.163200
     11 N1          7.0090   -2.7000    2.5640 nh        1 SSL     -0.723000
     12 CB1         7.3160   -3.9090    3.2350 ce        1 SSL      0.231000
     13 CB6         6.8390   -5.1200    2.8450 c2        1 SSL     -0.351200
     14 CB5         7.2070   -6.4470    3.4250 c3        1 SSL      0.303000
     15 CB4         8.1640   -6.2960    4.5920 ce        1 SSL      0.290600
     16 NA1         8.5300   -7.4620    5.3180 nf        1 SSL     -0.457400
     17 NA2         9.4410   -8.2450    4.9670 n1        1 SSL      0.178700
     18 NA3        10.1870   -9.1000    4.9000 n1        1 SSL     -0.170000
     19 CB3         8.5710   -5.0720    5.0290 cf        1 SSL     -0.079600
     20 CB2         8.1250   -3.8290    4.4610 ce        1 SSL     -0.381100
     21 NN1         8.4910   -2.6370    5.1170 no        1 SSL      0.314100
     22 ON1         9.0720   -2.6850    6.2020 o         1 SSL     -0.387500
     23 ON2         8.2520   -1.5180    4.6770 o         1 SSL     -0.387500
     24 CA          4.8410   -2.9360    1.4420 c3        1 SSL      0.121400
     25 OR1         4.0280   -2.4100    0.3920 os        1 SSL     -0.445600
     26 C1          6.8670   -3.5980    0.1240 c3        1 SSL      0.189400
     27 O2          8.2500   -3.6800    0.1170 os        1 SSL     -0.575200
     28 PA          8.8340   -5.0220   -0.7020 p5        1 SSL      1.597800
     29 O1A         7.7920   -5.2660   -1.7270 o         1 SSL     -0.887500
     30 O2A        10.2220   -4.6880   -1.0770 o         1 SSL     -0.887500
     31 O3A         8.7770   -6.1760    0.4360 os        1 SSL     -0.820800
     32 PB          8.8710   -7.4890    1.4150 p5        1 SSL      1.621800
     33 O1B         7.5770   -7.3680    2.4490 os        1 SSL     -0.628200
     34 O2B        10.0720   -7.4310    2.2710 o         1 SSL     -0.883000
     35 O3B         8.5440   -8.6830    0.6100 o         1 SSL     -0.883000
     36 CR1         3.3730   -0.7120   -1.1470 c3        1 SSL     -0.091400
     37 CC          1.8570   -0.6570   -0.9030 c3        1 SSL      0.166200
     38 CC1         1.3140   -2.0930   -0.8610 c3        1 SSL     -0.103350
     39 CC2         1.2360    0.0070   -2.1530 c3        1 SSL     -0.103350
     40 HOR        -0.0800   -0.7200    0.8220 ho        1 SSL      0.361000
     41 H1CE        2.3540    2.1270    1.9490 hc        1 SSL      0.039533
     42 H2CE        1.0000    1.2340    2.7620 hc        1 SSL      0.039533
     43 H3CE        2.7050    1.0570    3.3720 hc        1 SSL      0.039533
     44 H4CE        2.4860   -1.2960    3.2920 hc        1 SSL      0.039533
     45 H5CE        0.8200   -1.2730    2.5890 hc        1 SSL      0.039533
     46 H6CE        2.1570   -2.2140    1.7760 hc        1 SSL      0.039533
     47 HACF        4.3360   -0.4030    2.1880 hc        1 SSL      0.069450
     48 HBCF        4.1800    0.9300    0.9700 hc        1 SSL      0.069450
     49 HACG        6.4620   -0.4400    1.5350 h1        1 SSL      0.057950
     50 HBCG        7.4930   -1.1270    0.1660 h1        1 SSL      0.057950
     51 HN1         7.8190   -2.1050    2.5590 hn        1 SSL      0.410800
     52 HB6         6.1930   -5.2290    1.9640 ha        1 SSL      0.114000
     53 HB5         6.2470   -6.8930    3.8590 h1        1 SSL     -0.013300
     54 HB3         9.2680   -4.9970    5.8850 ha        1 SSL      0.117000
     55 H1CA        4.6310   -4.0380    1.3890 h1        1 SSL      0.057950
     56 H2CA        4.4640   -2.5270    2.4190 h1        1 SSL      0.057950
     57 H11         6.5050   -3.1580   -0.8500 h1        1 SSL      0.028700
     58 H12         6.4220   -4.6260    0.2110 h1        1 SSL      0.028700
     59 HACR        3.7320    0.2760   -1.5330 hc        1 SSL      0.069450
     60 HBCR        3.5850   -1.4940   -1.9220 hc        1 SSL      0.069450
     61 H1CC        1.8440   -2.6980   -0.0860 hc        1 SSL      0.039533
     62 H2CC        0.2160   -2.1080   -0.6670 hc        1 SSL      0.039533
     63 H3CC        1.4980   -2.5790   -1.8500 hc        1 SSL      0.039533
     64 H4CC        0.1220    0.0060   -2.0760 hc        1 SSL      0.039533
     65 H5CC        1.5870    1.0600   -2.2590 hc        1 SSL      0.039533
     66 H6CC        1.5420   -0.5680   -3.0580 hc        1 SSL      0.039533
@<TRIPOS>BOND
     1    1    2 1   
     2    1   40 1   
     3    2    3 1   
     4    2   37 1   
     5    3    4 1   
     6    3    5 1   
     7    3    6 1   
     8    4   41 1   
     9    4   42 1   
    10    4   43 1   
    11    5   44 1   
    12    5   45 1   
    13    5   46 1   
    14    6    7 1   
    15    6   47 1   
    16    6   48 1   
    17    7    8 1   
    18    7   25 1   
    19    7   36 1   
    20    8    9 1   
    21    9   10 1   
    22    9   49 1   
    23    9   50 1   
    24   10   11 1   
    25   10   24 1   
    26   10   26 1   
    27   11   12 1   
    28   11   51 1   
    29   12   13 2   
    30   12   20 1   
    31   13   14 1   
    32   13   52 1   
    33   14   15 1   
    34   14   33 1   
    35   14   53 1   
    36   15   16 2   
    37   15   19 1   
    38   16   17 1   
    39   17   18 3   
    40   19   20 2   
    41   19   54 1   
    42   20   21 1   
    43   21   22 1   
    44   21   23 1   
    45   24   25 1   
    46   24   55 1   
    47   24   56 1   
    48   26   27 1   
    49   26   57 1   
    50   26   58 1   
    51   27   28 1   
    52   28   29 1   
    53   28   30 1   
    54   28   31 1   
    55   31   32 1   
    56   32   33 1   
    57   32   34 1   
    58   32   35 1   
    59   36   37 1   
    60   36   59 1   
    61   36   60 1   
    62   37   38 1   
    63   37   39 1   
    64   38   61 1   
    65   38   62 1   
    66   38   63 1   
    67   39   64 1   
    68   39   65 1   
    69   39   66 1   
@<TRIPOS>SUBSTRUCTURE
     1 SSL         1 TEMP              0 ****  ****    0 ROOT
