@<TRIPOS>MOLECULE
molecule
   30    29     1     0     0
SMALL
bcc


@<TRIPOS>ATOM
      1 C2           0.0000     0.0000     0.0000 c3         1 SSM      -0.168100
      2 C            1.5060     0.0000     0.0000 c          1 SSM       0.664100
      3 O            2.1130     0.0000     1.0490 o          1 SSM      -0.580100
      4 N            2.1800    -0.0010    -1.1680 ns         1 SSM      -0.582900
      5 CA           3.6450    -0.0010    -1.1690 c3         1 SSM       0.057700
      6 CB           4.1560     1.2480    -0.4480 c3         1 SSM      -0.071400
      7 CG           3.7500     2.4940    -1.2380 c3         1 SSM      -0.082100
      8 SD           4.3570     3.9750    -0.3830 s4         1 SSM       0.277600
      9 OD1          5.7770     3.9590    -0.3560 o          1 SSM      -0.506200
     10 CE           3.7880     5.3250    -1.4540 c3         1 SSM      -0.101800
     11 C3           4.1470    -1.2320    -0.4580 c          1 SSM       0.641100
     12 O3           3.4190    -1.8310     0.3030 o          1 SSM      -0.568100
     13 N2           5.4060    -1.6650    -0.6700 ns         1 SSM      -0.593900
     14 C1           5.8940    -2.8610     0.0210 c3         1 SSM       0.105300
     15 H2          -0.3610     0.9400    -0.3980 hc         1 SSM       0.059367
     16 H2A         -0.3610    -0.1250     1.0140 hc         1 SSM       0.059367
     17 H2B         -0.3610    -0.8150    -0.6150 hc         1 SSM       0.059367
     18 HN           1.6800    -0.0310    -2.0340 hn         1 SSM       0.313500
     19 HA           4.0060    -0.0020    -2.1900 h1         1 SSM       0.060700
     20 HB           5.2360     1.2050    -0.3710 hc         1 SSM       0.078200
     21 HBA          3.7250     1.2940     0.5450 hc         1 SSM       0.078200
     22 HG           2.6710     2.5380    -1.3150 h1         1 SSM       0.071200
     23 HGA          4.1810     2.4480    -2.2310 h1         1 SSM       0.071200
     24 HE           2.7060     5.3100    -1.5110 h1         1 SSM       0.074367
     25 HEA          4.2040     5.1990    -2.4460 h1         1 SSM       0.074367
     26 HEB          4.1140     6.2730    -1.0430 h1         1 SSM       0.074367
     27 HN2          5.9940    -1.1910    -1.3270 hn         1 SSM       0.310500
     28 H1           5.2620    -3.7050    -0.2280 h1         1 SSM       0.042033
     29 H1A          5.8690    -2.6950     1.0910 h1         1 SSM       0.042033
     30 H1B          6.9110    -3.0670    -0.2890 h1         1 SSM       0.042033
@<TRIPOS>BOND
     1     1     2 1
     2     2     3 2
     3     2     4 1
     4     4     5 1
     5     5     6 1
     6     5    11 1
     7     6     7 1
     8     7     8 1
     9     8     9 2
    10     8    10 1
    11    11    12 2
    12    11    13 1
    13    13    14 1
    14     1    15 1
    15     1    16 1
    16     1    17 1
    17     4    18 1
    18     5    19 1
    19     6    20 1
    20     6    21 1
    21     7    22 1
    22     7    23 1
    23    10    24 1
    24    10    25 1
    25    10    26 1
    26    13    27 1
    27    14    28 1
    28    14    29 1
    29    14    30 1
@<TRIPOS>SUBSTRUCTURE
     1 SSM         1 TEMP              0 ****  ****    0 ROOT
