@<TRIPOS>MOLECULE
molecule
   12    11     1     0     0
SMALL
bcc


@<TRIPOS>ATOM
      1 C1           0.0000     0.0000     0.0000 c          1 SSN       0.891600
      2 O1           1.2090     0.0000     0.0000 o          1 SSN      -0.851300
      3 C2          -0.7530     0.0000     1.3050 c3         1 SSN      -0.178400
      4 O2          -0.6710     0.0040    -1.1630 o          1 SSN      -0.851300
      5 C3           0.2420    -0.0060     2.4680 c3         1 SSN      -0.181400
      6 C4          -0.5120    -0.0050     3.7740 c          1 SSN       0.567900
      7 O4          -0.2970    -0.8640     4.5950 o          1 SSN      -0.572100
      8 H2          -1.3790    -0.8820     1.3610 hc         1 SSN       0.031200
      9 H2A         -1.3730     0.8870     1.3640 hc         1 SSN       0.031200
     10 H3           0.8610    -0.8930     2.4090 hc         1 SSN       0.072700
     11 H3A          0.8680     0.8760     2.4110 hc         1 SSN       0.072700
     12 H4          -1.2130     0.7910     3.9930 h4         1 SSN      -0.033800
@<TRIPOS>BOND
     1     2     1 1
     2     1     3 1
     3     1     4 1
     4     5     3 1
     5     3     8 1
     6     3     9 1
     7     5     6 1
     8     5    10 1
     9     5    11 1
    10     7     6 2
    11     6    12 1
@<TRIPOS>SUBSTRUCTURE
     1 SSN         1 TEMP              0 ****  ****    0 ROOT
