@<TRIPOS>MOLECULE
SSN
   12    11     1     0     0
SMALL
bcc


@<TRIPOS>ATOM
      1 C1         -0.0050    0.2050   -0.0100 c         1 SSN      0.910600
      2 O1          1.1220    0.7770    0.0470 o         1 SSN     -0.845300
      3 C2         -0.7710   -0.0370    1.3070 c3        1 SSN     -0.196400
      4 O2         -0.5610   -0.1640   -1.0820 o         1 SSN     -0.845300
      5 C3          0.1720   -0.2970    2.4560 c3        1 SSN     -0.192400
      6 C4         -0.4210    0.0620    3.7730 c         1 SSN      0.572900
      7 O4         -0.2470   -0.5770    4.8180 o         1 SSN     -0.593100
      8 H2         -1.3850    0.8790    1.5020 hc        1 SSN      0.025200
      9 H2A        -1.4710   -0.8970    1.1710 hc        1 SSN      0.025200
     10 H3          0.5060   -1.3670    2.4540 hc        1 SSN      0.082700
     11 H3A         1.0940    0.3390    2.3010 hc        1 SSN      0.082700
     12 H4         -1.0500    0.9850    3.7800 h4        1 SSN     -0.027800
@<TRIPOS>BOND
     1    1    2 1   
     2    1    3 1   
     3    1    4 1   
     4    3    5 1   
     5    3    8 1   
     6    3    9 1   
     7    5    6 1   
     8    5   10 1   
     9    5   11 1   
    10    6    7 2   
    11    6   12 1   
@<TRIPOS>SUBSTRUCTURE
     1 SSN         1 TEMP              0 ****  ****    0 ROOT
