@<TRIPOS>MOLECULE
molecule
   22    21     1     0     0
SMALL
bcc


@<TRIPOS>ATOM
      1 S1           0.0000     0.0000     0.0000 ss         1 SSP      -0.185100
      2 S2           2.0550     0.0000     0.0000 ss         1 SSP      -0.185100
      3 CA1         -2.1890    -0.0050     3.5040 c3         1 SSP      -0.088100
      4 CB1         -1.8690    -0.0000     2.0170 c3         1 SSP      -0.070900
      5 CG1         -0.3630     0.0000     1.7790 c3         1 SSP       0.000200
      6 CA2          4.2550    -3.4910     0.0010 c3         1 SSP      -0.088100
      7 CB2          3.9300    -2.0040    -0.0020 c3         1 SSP      -0.070900
      8 CG2          2.4240    -1.7710    -0.0020 c3         1 SSP       0.000200
      9 HA11        -1.7640     0.8770     3.9680 hc         1 SSP       0.037367
     10 HA12        -1.7670    -0.8920     3.9610 hc         1 SSP       0.037367
     11 HA13        -3.2630    -0.0040     3.6420 hc         1 SSP       0.037367
     12 HB11        -2.3000     0.8840     1.5640 hc         1 SSP       0.052200
     13 HB12        -2.3010    -0.8810     1.5580 hc         1 SSP       0.052200
     14 HG11         0.0700    -0.8830     2.2320 h1         1 SSP       0.064200
     15 HG12         0.0700     0.8830     2.2320 h1         1 SSP       0.064200
     16 HA21         3.8340    -3.9510     0.8870 hc         1 SSP       0.037367
     17 HA22         3.8320    -3.9540    -0.8820 hc         1 SSP       0.037367
     18 HA23         5.3300    -3.6260    -0.0000 hc         1 SSP       0.037367
     19 HB21         4.3610    -1.5440     0.8800 hc         1 SSP       0.052200
     20 HB22         4.3600    -1.5480    -0.8860 hc         1 SSP       0.052200
     21 HG21         1.9920    -2.2250    -0.8850 h1         1 SSP       0.064200
     22 HG22         1.9920    -2.2270     0.8810 h1         1 SSP       0.064200
@<TRIPOS>BOND
     1     1     2 1
     2     1     5 1
     3     2     8 1
     4     3     4 1
     5     3     9 1
     6     3    10 1
     7     3    11 1
     8     4     5 1
     9     4    12 1
    10     4    13 1
    11     5    14 1
    12     5    15 1
    13     6     7 1
    14     6    16 1
    15     6    17 1
    16     6    18 1
    17     7     8 1
    18     7    19 1
    19     7    20 1
    20     8    21 1
    21     8    22 1
@<TRIPOS>SUBSTRUCTURE
     1 SSP         1 TEMP              0 ****  ****    0 ROOT
