@<TRIPOS>MOLECULE
SSP
   22    21     1     0     0
SMALL
bcc


@<TRIPOS>ATOM
      1 S1         -0.0200   -0.1520    0.2310 ss        1 SSP     -0.182100
      2 S2          2.0790   -0.2310    0.1490 ss        1 SSP     -0.182100
      3 CA1        -2.3900    0.1690    3.4550 c3        1 SSP     -0.091100
      4 CB1        -1.9160    0.1130    2.0240 c3        1 SSP     -0.073400
      5 CG1        -0.4210   -0.0810    1.9570 c3        1 SSP     -0.012300
      6 CA2         4.4550   -3.4520   -0.1580 c3        1 SSP     -0.091100
      7 CB2         3.9780   -2.0220   -0.1100 c3        1 SSP     -0.073400
      8 CG2         2.4830   -1.9570    0.0870 c3        1 SSP     -0.012300
      9 HA11       -3.4970    0.3150    3.4860 hc        1 SSP      0.037033
     10 HA12       -1.9060    1.0150    3.9980 hc        1 SSP      0.037033
     11 HA13       -2.1430   -0.7800    3.9900 hc        1 SSP      0.037033
     12 HB11       -2.1970    1.0640    1.4970 hc        1 SSP      0.056200
     13 HB12       -2.4320   -0.7300    1.4890 hc        1 SSP      0.056200
     14 HG11        0.1110    0.7650    2.4530 h1        1 SSP      0.067200
     15 HG12       -0.1220   -1.0260    2.4700 h1        1 SSP      0.067200
     16 HA21        5.5610   -3.4820   -0.3060 hc        1 SSP      0.037033
     17 HA22        3.9700   -4.0020   -1.0010 hc        1 SSP      0.037033
     18 HA23        4.2100   -3.9830    0.7940 hc        1 SSP      0.037033
     19 HB21        4.2560   -1.5000   -1.0640 hc        1 SSP      0.056200
     20 HB22        4.4940   -1.4820    0.7290 hc        1 SSP      0.056200
     21 HG21        1.9510   -2.4590   -0.7560 h1        1 SSP      0.067200
     22 HG22        2.1870   -2.4660    1.0350 h1        1 SSP      0.067200
@<TRIPOS>BOND
     1    1    2 1   
     2    1    5 1   
     3    2    8 1   
     4    3    4 1   
     5    3    9 1   
     6    3   10 1   
     7    3   11 1   
     8    4    5 1   
     9    4   12 1   
    10    4   13 1   
    11    5   14 1   
    12    5   15 1   
    13    6    7 1   
    14    6   16 1   
    15    6   17 1   
    16    6   18 1   
    17    7    8 1   
    18    7   19 1   
    19    7   20 1   
    20    8   21 1   
    21    8   22 1   
@<TRIPOS>SUBSTRUCTURE
     1 SSP         1 TEMP              0 ****  ****    0 ROOT
