@<TRIPOS>MOLECULE
SSR
   62    66     1     0     0
SMALL
bcc


@<TRIPOS>ATOM
      1 C1           0.0000     0.0000     0.0000 ca         1 SSR      -0.160000
      2 C2           1.3780     0.0000     0.0000 ca         1 SSR      -0.066000
      3 C3           2.0740     0.0000     1.2040 ca         1 SSR      -0.248200
      4 C4           1.3620    -0.0000     2.4130 ca         1 SSR      -0.038800
      5 C5          -0.0300    -0.0000     2.4050 ca         1 SSR      -0.074300
      6 C6          -0.7060     0.0000     1.1990 ca         1 SSR       0.118100
      7 N9           3.4210    -0.0010     1.5160 na         1 SSR       0.539500
      8 C10          3.5930     0.0000     2.8610 cc         1 SSR      -0.188300
      9 C11          2.3790     0.0000     3.4820 cd         1 SSR      -0.222400
     10 C12         -0.7970    -0.0000     3.7030 c3         1 SSR       0.051200
     11 O16         -2.0670     0.0000     1.1840 oh         1 SSR      -0.483100
     12 C17          2.1300     0.0010     4.9300 c          1 SSR       0.660300
     13 N18          1.7220     1.1290     5.5420 n          1 SSR      -0.150800
     14 C19          1.5790     1.1860     7.0050 c3         1 SSR       0.003500
     15 C20          2.3380     2.4120     7.5220 c3         1 SSR       0.115300
     16 N21          1.8720     3.6090     6.8070 n7         1 SSR      -0.577200
     17 C22          2.1700     3.5200     5.3710 c3         1 SSR       0.115300
     18 C23          1.4110     2.3400     4.7660 c3         1 SSR       0.003500
     19 O32          2.2960    -1.0160     5.5760 o          1 SSR      -0.655100
     20 C35          4.4610     0.0000     0.5770 ca         1 SSR      -0.186200
     21 C36          4.6350     1.0890    -0.2660 ca         1 SSR      -0.089500
     22 C37          5.6610     1.0860    -1.1910 ca         1 SSR      -0.092000
     23 C38          6.5130     0.0010    -1.2780 ca         1 SSR      -0.083000
     24 C39          6.3410    -1.0860    -0.4410 ca         1 SSR      -0.092000
     25 C40          5.3210    -1.0870     0.4910 ca         1 SSR      -0.089500
     26 C46          4.9260     0.0010     3.5660 c3         1 SSR       0.086100
     27 C47          5.2910     1.4130     3.9480 ca         1 SSR      -0.066300
     28 C50          5.4470     1.7480     5.2800 ca         1 SSR      -0.108300
     29 C51          5.7820     3.0450     5.6320 ca         1 SSR       0.108900
     30 C52          5.9600     4.0040     4.6490 ca         1 SSR      -0.130000
     31 C53          5.8030     3.6660     3.3170 ca         1 SSR      -0.080000
     32 C54          5.4740     2.3690     2.9670 ca         1 SSR      -0.121000
     33 C58          5.2530     0.7040     6.3490 c3         1 SSR       0.028200
     34 F62          5.9350     3.3740     6.9330 f          1 SSR      -0.124900
     35 H1          -0.5380     0.0010    -0.9410 ha         1 SSR       0.110000
     36 H2           1.9190    -0.0000    -0.9380 ha         1 SSR       0.105000
     37 H12         -0.9710     1.0210     4.0200 hc         1 SSR       0.016033
     38 H12A        -0.2240    -0.5210     4.4610 hc         1 SSR       0.016033
     39 H12B        -1.7470    -0.5010     3.5620 hc         1 SSR       0.016033
     40 HO16        -2.3740    -0.5810     0.5080 ho         1 SSR       0.400000
     41 H19          0.5300     1.2710     7.2640 h1         1 SSR       0.038450
     42 H19A         1.9960     0.2880     7.4460 h1         1 SSR       0.038450
     43 H20          3.3990     2.2790     7.3490 h1         1 SSR       0.035450
     44 H20A         2.1510     2.5310     8.5830 h1         1 SSR       0.035450
     45 HN21         0.8850     3.7120     6.9360 hn         1 SSR       0.253800
     46 H22          3.2340     3.3720     5.2330 h1         1 SSR       0.035450
     47 H22A         1.8610     4.4350     4.8820 h1         1 SSR       0.035450
     48 H23          1.7190     2.1990     3.7370 h1         1 SSR       0.038450
     49 H23A         0.3460     2.5340     4.8090 h1         1 SSR       0.038450
     50 H36          3.9690     1.9400    -0.1980 ha         1 SSR       0.119500
     51 H37          5.7990     1.9360    -1.8490 ha         1 SSR       0.110000
     52 H38          7.3150    -0.0000    -2.0060 ha         1 SSR       0.108000
     53 H39          7.0110    -1.9340    -0.5100 ha         1 SSR       0.110000
     54 H40          5.1860    -1.9380     1.1470 ha         1 SSR       0.119500
     55 H46          4.8630    -0.6100     4.4580 hc         1 SSR       0.046200
     56 H46A         5.6840    -0.4010     2.9040 hc         1 SSR       0.046200
     57 H52          6.2200     5.0190     4.9230 ha         1 SSR       0.121000
     58 H53          5.9440     4.4150     2.5480 ha         1 SSR       0.106000
     59 H54          5.3510     2.1050     1.9240 ha         1 SSR       0.115000
     60 H58          4.2920     0.2230     6.2140 hc         1 SSR       0.027700
     61 H58A         6.0400    -0.0370     6.2770 hc         1 SSR       0.027700
     62 H58B         5.2880     1.1740     7.3240 hc         1 SSR       0.027700
@<TRIPOS>BOND
     1     1     2 ar  
     2     1     6 ar  
     3     1    35 1   
     4     2     3 ar  
     5     2    36 1   
     6     3     4 ar  
     7     3     7 1   
     8     4     5 ar  
     9     4     9 1   
    10     5     6 ar  
    11     5    10 1   
    12     6    11 1   
    13     7     8 1   
    14     7    20 1   
    15     8     9 2   
    16     8    26 1   
    17     9    12 1   
    18    10    37 1   
    19    10    38 1   
    20    10    39 1   
    21    11    40 1   
    22    12    13 1   
    23    12    19 2   
    24    13    14 1   
    25    13    18 1   
    26    14    15 1   
    27    14    41 1   
    28    14    42 1   
    29    15    16 1   
    30    15    43 1   
    31    15    44 1   
    32    16    17 1   
    33    16    45 1   
    34    17    18 1   
    35    17    46 1   
    36    17    47 1   
    37    18    48 1   
    38    18    49 1   
    39    20    21 ar  
    40    20    25 ar  
    41    21    22 ar  
    42    21    50 1   
    43    22    23 ar  
    44    22    51 1   
    45    23    24 ar  
    46    23    52 1   
    47    24    25 ar  
    48    24    53 1   
    49    25    54 1   
    50    26    27 1   
    51    26    55 1   
    52    26    56 1   
    53    27    28 ar  
    54    27    32 ar  
    55    28    29 ar  
    56    28    33 1   
    57    29    30 ar  
    58    29    34 1   
    59    30    31 ar  
    60    30    57 1   
    61    31    32 ar  
    62    31    58 1   
    63    32    59 1   
    64    33    60 1   
    65    33    61 1   
    66    33    62 1   
@<TRIPOS>SUBSTRUCTURE
     1 SSR         1 TEMP              0 ****  ****    0 ROOT
