@<TRIPOS>MOLECULE
molecule
   45    46     1     0     0
SMALL
bcc


@<TRIPOS>ATOM
      1 PA           0.0000     0.0000     0.0000 p5         1 SSS       1.170900
      2 O1A          1.6170     0.0000     0.0000 o          1 SSS      -0.912833
      3 O2A         -0.3710     0.0000     1.5740 o          1 SSS      -0.912833
      4 O3A         -0.6330    -1.0930    -0.8100 o          1 SSS      -0.912833
      5 O5'         -0.3620     1.5040    -0.4790 os         1 SSS      -0.570200
      6 C5'          0.1970     2.5930     0.2330 c3         1 SSS       0.230400
      7 C4'         -0.2840     3.8870    -0.4000 c3         1 SSS       0.111100
      8 O4'         -1.7180     3.9650    -0.3120 os         1 SSS      -0.357600
      9 C1'         -2.0890     5.3500    -0.1460 c3         1 SSS       0.250800
     10 N9          -2.9490     5.4750     1.0290 na         1 SSS      -0.222900
     11 C4          -3.9880     6.3510     1.2140 cc         1 SSS       0.051000
     12 O6          -6.2110     7.6440     2.5660 o          1 SSS      -0.694100
     13 N3          -4.3450     7.2400     0.2640 nv         1 SSS      -0.918200
     14 N6          -5.8990     6.2980     4.4290 ns         1 SSS      -0.485900
     15 C61         -6.9850     6.8420     5.2120 c3         1 SSS       0.029700
     16 C62         -6.5480     8.0780     5.9790 c          1 SSS       0.883600
     17 C63         -7.5470     5.7930     6.1770 c3         1 SSS      -0.172400
     18 C64         -8.0390     4.5470     5.4710 c          1 SSS       0.891600
     19 O65         -7.3080     8.7700     6.6460 o          1 SSS      -0.884300
     20 O66         -5.2280     8.3510     5.8520 o          1 SSS      -0.884300
     21 O67         -8.5140     4.5080     4.3440 o          1 SSS      -0.879800
     22 O68         -7.8910     3.4440     6.2510 o          1 SSS      -0.879800
     23 C5          -4.4690     6.0770     2.4730 cd         1 SSS       0.292800
     24 N7          -3.7590     5.0620     3.0640 nd         1 SSS      -0.646000
     25 C8          -2.8540     4.7220     2.1730 cc         1 SSS       0.418400
     26 C2'         -0.7910     6.1600    -0.1210 c3         1 SSS       0.080100
     27 O2'         -0.8120     7.2640     0.7610 oh         1 SSS      -0.572800
     28 C3'          0.2430     5.1340     0.2900 c3         1 SSS       0.083100
     29 O3'          1.5290     5.4940    -0.1800 oh         1 SSS      -0.610800
     30 H5'1         1.2780     2.5450     0.1840 h1         1 SSS       0.040700
     31 H5'2        -0.1230     2.5540     1.2670 h1         1 SSS       0.040700
     32 H4'          0.0080     3.9080    -1.4430 h1         1 SSS       0.044700
     33 H1'         -2.6570     5.6530    -1.0180 h2         1 SSS       0.052700
     34 H3N1        -4.9660     6.9640    -0.4710 hn         1 SSS       0.414800
     35 H3N2        -4.0240     8.1860     0.3180 hn         1 SSS       0.414800
     36 H6          -5.3500     5.5660     4.8360 hn         1 SSS       0.324500
     37 H61         -7.7770     7.1310     4.5320 h1         1 SSS       0.054700
     38 H631        -6.7690     5.5130     6.8770 hc         1 SSS       0.035200
     39 H632        -8.3710     6.2310     6.7260 hc         1 SSS       0.035200
     40 H8          -2.1200     3.9400     2.3230 h5         1 SSS       0.079100
     41 H2'         -0.5690     6.5040    -1.1240 h1         1 SSS       0.029700
     42 HA          -0.3390     7.9830     0.3760 ho         1 SSS       0.381000
     43 H3'          0.2420     5.0040     1.3650 h1         1 SSS       0.077700
     44 HB           2.0860     5.6970     0.5530 ho         1 SSS       0.394000
     45 C6          -5.5610     6.7310     3.1310 c          1 SSS       0.604600
@<TRIPOS>BOND
     1     1     2 1
     2     1     3 1
     3     1     4 1
     4     1     5 1
     5     5     6 1
     6     6     7 1
     7     6    30 1
     8     6    31 1
     9     7     8 1
    10     7    28 1
    11     7    32 1
    12     8     9 1
    13     9    10 1
    14     9    26 1
    15     9    33 1
    16    10    11 1
    17    10    25 1
    18    11    13 1
    19    11    23 2
    20    12    45 2
    21    13    34 1
    22    13    35 1
    23    45    14 1
    24    45    23 1
    25    14    15 1
    26    14    36 1
    27    15    16 1
    28    15    17 1
    29    15    37 1
    30    16    19 1
    31    16    20 1
    32    17    18 1
    33    17    38 1
    34    17    39 1
    35    18    21 1
    36    18    22 1
    37    23    24 1
    38    24    25 2
    39    25    40 1
    40    26    27 1
    41    26    28 1
    42    26    41 1
    43    27    42 1
    44    28    29 1
    45    28    43 1
    46    29    44 1
@<TRIPOS>SUBSTRUCTURE
     1 SSS         1 TEMP              0 ****  ****    0 ROOT
