@<TRIPOS>MOLECULE
molecule
   22    21     1     0     0
SMALL
bcc


@<TRIPOS>ATOM
      1 O3           0.0000     0.0000     0.0000 oh         1 SST      -0.588800
      2 O4           3.3680     0.0010     1.4420 oh         1 SST      -0.602300
      3 O2           1.5610    -2.4140     0.0170 oh         1 SST      -0.602300
      4 C3           1.4290     0.0000     0.0000 c3         1 SST       0.154100
      5 C4           1.9390     0.0000     1.4430 c3         1 SST       0.145100
      6 C2           1.9390    -1.2500    -0.7220 c3         1 SST       0.145100
      7 C5           1.4290     1.2500     2.1630 c3         1 SST       0.111400
      8 C1           1.3290    -1.3140    -2.1220 c3         1 SST       0.111400
      9 H1          -0.3140     0.7750    -0.4360 ho         1 SST       0.399000
     10 H3           2.1930    -3.0980    -0.1300 ho         1 SST       0.415500
     11 H4           1.4440     1.9330     3.9970 ho         1 SST       0.405500
     12 H5           1.6170    -2.3790    -3.7390 ho         1 SST       0.405500
     13 H6           1.7900     0.8850    -0.5110 h1         1 SST       0.045700
     14 H7           1.5780    -0.8840     1.9540 h1         1 SST       0.070200
     15 H8           3.0190    -1.2060    -0.8000 h1         1 SST       0.070200
     16 H9           0.3490     1.2950     2.0860 h1         1 SST       0.031700
     17 H10          1.8610     2.1320     1.7060 h1         1 SST       0.031700
     18 H11          0.2570    -1.4470    -2.0430 h1         1 SST       0.031700
     19 H12          1.5410    -0.3930    -2.6520 h1         1 SST       0.031700
     20 H2           3.6830    -0.4250     2.2220 ho         1 SST       0.415500
     21 O5           1.8070     1.1930     3.5400 oh         1 SST      -0.613800
     22 O1           1.8930    -2.4150    -2.8380 oh         1 SST      -0.613800
@<TRIPOS>BOND
     1    21     7 1
     2     7     5 1
     3     2     5 1
     4     8    22 1
     5     8     6 1
     6     5     4 1
     7     6     4 1
     8     6     3 1
     9     4     1 1
    10     1     9 1
    11     2    20 1
    12     3    10 1
    13    21    11 1
    14    22    12 1
    15     4    13 1
    16     5    14 1
    17     6    15 1
    18     7    16 1
    19     7    17 1
    20     8    18 1
    21     8    19 1
@<TRIPOS>SUBSTRUCTURE
     1 SST         1 TEMP              0 ****  ****    0 ROOT
