@<TRIPOS>MOLECULE
SST
   22    21     1     0     0
SMALL
bcc


@<TRIPOS>ATOM
      1 O3          0.1680    0.0530   -0.0900 oh        1 SST     -0.584800
      2 O4          3.4830    0.2330    1.3350 oh        1 SST     -0.600800
      3 O2          1.4740   -2.4450   -0.0070 oh        1 SST     -0.600800
      4 C3          1.5810   -0.0490   -0.0330 c3        1 SST      0.146100
      5 C4          2.0970   -0.0630    1.4180 c3        1 SST      0.134100
      6 C2          1.9870   -1.3490   -0.7460 c3        1 SST      0.134100
      7 C5          1.3820    0.9790    2.2850 c3        1 SST      0.090400
      8 C1          1.4490   -1.3550   -2.1800 c3        1 SST      0.090400
      9 H1         -0.0610    0.9350    0.2250 ho        1 SST      0.397000
     10 H3          1.6000   -3.2300   -0.5580 ho        1 SST      0.422500
     11 H4          1.6230    1.6420    4.0830 ho        1 SST      0.408500
     12 H5          1.3730   -2.6850   -3.5800 ho        1 SST      0.408500
     13 H6          2.0520    0.8150   -0.5830 h1        1 SST      0.050700
     14 H7          1.9490   -1.0850    1.8680 h1        1 SST      0.075200
     15 H8          3.1130   -1.4050   -0.7530 h1        1 SST      0.075200
     16 H9          0.3070    0.6910    2.4290 h1        1 SST      0.038450
     17 H10         1.4430    1.9950    1.8110 h1        1 SST      0.038450
     18 H11         1.8890   -0.5030   -2.7630 h1        1 SST      0.038450
     19 H12         0.3310   -1.2710   -2.1680 h1        1 SST      0.038450
     20 H2          3.8150    0.2480    2.2430 ho        1 SST      0.422500
     21 O5          2.0600    0.9850    3.5310 oh        1 SST     -0.610800
     22 O1          1.8550   -2.5900   -2.7510 oh        1 SST     -0.610800
@<TRIPOS>BOND
     1    1    4 1   
     2    1    9 1   
     3    2    5 1   
     4    2   20 1   
     5    3    6 1   
     6    3   10 1   
     7    4    5 1   
     8    4    6 1   
     9    4   13 1   
    10    5    7 1   
    11    5   14 1   
    12    6    8 1   
    13    6   15 1   
    14    7   16 1   
    15    7   17 1   
    16    7   21 1   
    17    8   18 1   
    18    8   19 1   
    19    8   22 1   
    20   11   21 1   
    21   12   22 1   
@<TRIPOS>SUBSTRUCTURE
     1 SST         1 TEMP              0 ****  ****    0 ROOT
