@<TRIPOS>MOLECULE
molecule
   34    33     1     0     0
SMALL
bcc


@<TRIPOS>ATOM
      1 CAB          0.0000     0.0000     0.0000 c3         1 SSV      -0.191100
      2 CAP          1.5070     0.0000     0.0000 c          1 SSV       0.565300
      3 OAC          2.1150     0.0000     1.0540 o          1 SSV      -0.554100
      4 CAO          2.2060    -0.0000    -1.2100 ce         1 SSV      -0.291200
      5 CAN          3.5870    -0.0000    -1.2090 cf         1 SSV      -0.026000
      6 CAM          4.2860    -0.0000    -2.4190 cf         1 SSV      -0.173000
      7 CAL          5.6650    -0.0000    -2.4190 ce         1 SSV      -0.082000
      8 CAK          6.3650    -0.0000    -3.6300 ce         1 SSV      -0.157000
      9 CAJ          7.7430    -0.0000    -3.6300 cf         1 SSV      -0.099000
     10 CAI          8.4440    -0.0000    -4.8430 cf         1 SSV      -0.150000
     11 CAH          9.8100    -0.0000    -4.8420 ce         1 SSV      -0.106000
     12 CAG         10.5120    -0.0000    -6.0590 ce         1 SSV      -0.148000
     13 CAF         11.8720    -0.0000    -6.0590 cf         1 SSV      -0.108000
     14 CAE         12.5800    -0.0000    -7.2860 cf         1 SSV      -0.158000
     15 CAD         13.9180    -0.0000    -7.2860 c2         1 SSV      -0.148200
     16 CAA         14.6720    -0.0000    -8.5910 c3         1 SSV      -0.063900
     17 HAB1        -0.3610     0.0000     1.0210 hc         1 SSV       0.057367
     18 HAB2        -0.3610    -0.8850    -0.5110 hc         1 SSV       0.057367
     19 HAB3        -0.3610     0.8840    -0.5110 hc         1 SSV       0.057367
     20 HAO          1.6640    -0.0000    -2.1480 ha         1 SSV       0.132000
     21 HAN          4.1280     0.0000    -0.2710 ha         1 SSV       0.151000
     22 HAM          3.7440    -0.0000    -3.3580 ha         1 SSV       0.133000
     23 HAL          6.2070     0.0000    -1.4810 ha         1 SSV       0.132000
     24 HAK          5.8230    -0.0000    -4.5680 ha         1 SSV       0.133000
     25 HAJ          8.2850     0.0000    -2.6920 ha         1 SSV       0.129000
     26 HAI          7.9020    -0.0000    -5.7810 ha         1 SSV       0.132000
     27 HAH         10.3510     0.0000    -3.9040 ha         1 SSV       0.128000
     28 HAG          9.9710    -0.0000    -6.9980 ha         1 SSV       0.131000
     29 HAF         12.4140     0.0000    -5.1210 ha         1 SSV       0.128000
     30 HAE         12.0390    -0.0000    -8.2240 ha         1 SSV       0.129000
     31 HAD         14.4590     0.0000    -6.3470 ha         1 SSV       0.126000
     32 HAA1        14.4100    -0.8850    -9.1590 hc         1 SSV       0.044367
     33 HAA2        15.7370     0.0000    -8.3930 hc         1 SSV       0.044367
     34 HAA3        14.4100     0.8850    -9.1590 hc         1 SSV       0.044367
@<TRIPOS>BOND
     1     1     2 1
     2     2     3 2
     3     2     4 1
     4     4     5 2
     5     5     6 1
     6     6     7 2
     7     7     8 1
     8     8     9 2
     9     9    10 1
    10    10    11 2
    11    11    12 1
    12    12    13 2
    13    13    14 1
    14    14    15 2
    15    15    16 1
    16     1    17 1
    17     1    18 1
    18     1    19 1
    19     4    20 1
    20     5    21 1
    21     6    22 1
    22     7    23 1
    23     8    24 1
    24     9    25 1
    25    10    26 1
    26    11    27 1
    27    12    28 1
    28    13    29 1
    29    14    30 1
    30    15    31 1
    31    16    32 1
    32    16    33 1
    33    16    34 1
@<TRIPOS>SUBSTRUCTURE
     1 SSV         1 TEMP              0 ****  ****    0 ROOT
