@<TRIPOS>MOLECULE
SSV
   34    32     1     0     0
SMALL
bcc


@<TRIPOS>ATOM
      1 CAB         0.5060    0.4060    0.1440 c3        1 SSV     -0.197100
      2 CAP         1.7660    0.8910   -0.5020 c         1 SSV      0.563300
      3 OAC         2.0910    2.0860   -0.4880 o         1 SSV     -0.543100
      4 CAO         2.5770   -0.1510   -1.1490 ce        1 SSV     -0.269200
      5 CAN         3.7360    0.1270   -1.7730 cf        1 SSV     -0.040000
      6 CAM         4.5440   -0.8860   -2.4130 cf        1 SSV     -0.152100
      7 CAL         5.6770   -0.6230   -3.0260 c1        1 SSV     -0.011900
      8 CAK         6.7630   -0.3890   -3.6180 c1        1 SSV     -0.062900
      9 CAJ         7.8950   -0.1210   -4.2310 ce        1 SSV     -0.088100
     10 CAI         8.7120   -1.1230   -4.8740 ce        1 SSV     -0.139000
     11 CAH         9.8690   -0.8210   -5.4980 cf        1 SSV     -0.100000
     12 CAG        10.6870   -1.8190   -6.1420 cf        1 SSV     -0.143000
     13 CAF        11.8480   -1.5950   -6.7850 ce        1 SSV     -0.104000
     14 CAE        12.4970   -0.3160   -6.9540 ce        1 SSV     -0.153000
     15 CAD        13.6590   -0.1730   -7.6120 c2        1 SSV     -0.141200
     16 CAA        14.3410    1.1200   -7.7980 c3        1 SSV     -0.069900
     17 HAB1       -0.1460   -0.0810   -0.6220 hc        1 SSV      0.062700
     18 HAB2       -0.0510    1.2550    0.6100 hc        1 SSV      0.062700
     19 HAB3        0.7530   -0.3450    0.9330 hc        1 SSV      0.062700
     20 HAO         2.1780   -1.1760   -1.0910 ha        1 SSV      0.133000
     21 HAN         4.1740   -1.9280   -2.3730 ha        1 SSV      0.143000
     22 HAM         4.1060    1.1710   -1.8110 ha        1 SSV      0.154000
     23 HAL         4.4400    3.4660   -1.6060 ha        1 SSV      0.001000
     24 HAK         3.8530    3.4450   -1.2700 ha        1 SSV      0.001000
     25 HAJ         8.2570    0.9250   -4.2650 ha        1 SSV      0.142000
     26 HAI         8.3440   -2.1620   -4.8330 ha        1 SSV      0.134000
     27 HAH        10.2260    0.2230   -5.5320 ha        1 SSV      0.126000
     28 HAG        10.3030   -2.8550   -6.0880 ha        1 SSV      0.125000
     29 HAF        12.3750   -2.4570   -7.2350 ha        1 SSV      0.122000
     30 HAE        11.9960    0.5640   -6.5150 ha        1 SSV      0.125000
     31 HAD        14.1710   -1.0440   -8.0550 ha        1 SSV      0.121000
     32 HAA1       14.4560    1.3380   -8.8900 hc        1 SSV      0.045367
     33 HAA2       15.3630    1.0830   -7.3430 hc        1 SSV      0.045367
     34 HAA3       13.7770    1.9640   -7.3280 hc        1 SSV      0.045367
@<TRIPOS>BOND
     1    1    2 1   
     2    1   17 1   
     3    1   18 1   
     4    1   19 1   
     5    2    3 2   
     6    2    4 1   
     7    4    5 2   
     8    4   20 1   
     9    5    6 1   
    10    5   22 1   
    11    6    7 2   
    12    6   21 1   
    13    7    8 2   
    14    8    9 2   
    15    9   10 1   
    16    9   25 1   
    17   10   11 2   
    18   10   26 1   
    19   11   12 1   
    20   11   27 1   
    21   12   13 2   
    22   12   28 1   
    23   13   14 1   
    24   13   29 1   
    25   14   15 2   
    26   14   30 1   
    27   15   16 1   
    28   15   31 1   
    29   16   32 1   
    30   16   33 1   
    31   16   34 1   
    32   23   24 1   
@<TRIPOS>SUBSTRUCTURE
     1 SSV         1 TEMP              0 ****  ****    0 ROOT
