@<TRIPOS>MOLECULE
molecule
   24    24     1     0     0
SMALL
bcc


@<TRIPOS>ATOM
      1 C'           0.0000     0.0000     0.0000 c          1 ST1       0.873200
      2 O1'          1.2350     0.0000     0.0000 o          1 ST1      -0.822300
      3 O2'         -0.7240     0.0000     1.1520 o          1 ST1      -0.822300
      4 C1          -0.8430     0.0010    -1.1870 ca         1 ST1      -0.092600
      5 C2          -2.2310     0.0020    -1.0540 ca         1 ST1      -0.067000
      6 C3          -3.0400     0.0050    -2.1910 ca         1 ST1       0.059100
      7 O3          -4.3950     0.0060    -2.0380 oh         1 ST1      -0.511100
      8 C4          -2.4590     0.0060    -3.4590 ca         1 ST1       0.078600
      9 N4          -3.2820     0.0090    -4.5930 ns         1 ST1      -0.501100
     10 C4'         -3.7860     1.1130    -5.2870 c          1 ST1       0.703100
     11 O4'         -3.6020     2.3000    -5.0380 o          1 ST1      -0.580100
     12 CM4         -4.6360     0.6920    -6.4590 c3         1 ST1      -0.182100
     13 C5          -1.0710     0.0050    -3.5910 ca         1 ST1      -0.187200
     14 N5          -0.4510     0.0060    -4.8730 no         1 ST1       0.292200
     15 ON1         -1.1760     0.0080    -5.8940 o          1 ST1      -0.232500
     16 ON2          0.8000     0.0050    -4.9390 o          1 ST1      -0.232500
     17 C6          -0.2630     0.0020    -2.4540 ca         1 ST1      -0.046000
     18 H2          -2.6820     0.0120    -0.0690 ha         1 ST1       0.187000
     19 HO3         -4.6700    -0.8150    -1.6650 ho         1 ST1       0.410000
     20 HN4         -3.5410    -0.8900    -4.9500 hn         1 ST1       0.314500
     21 HM41        -4.9410     1.5690    -7.0170 hc         1 ST1       0.057033
     22 HM42        -4.0630     0.0360    -7.1040 hc         1 ST1       0.057033
     23 HM43        -5.5140     0.1690    -6.1000 hc         1 ST1       0.057033
     24 H6           0.8160     0.0010    -2.5560 ha         1 ST1       0.187000
@<TRIPOS>BOND
     1     1     2 1
     2     1     3 1
     3     1     4 1
     4     4     5 ar
     5     4    17 ar
     6     5     6 ar
     7     5    18 1
     8     6     7 1
     9     6     8 ar
    10     7    19 1
    11     8     9 1
    12     8    13 ar
    13     9    10 1
    14     9    20 1
    15    10    11 2
    16    10    12 1
    17    12    21 1
    18    12    22 1
    19    12    23 1
    20    13    14 1
    21    13    17 ar
    22    14    15 1
    23    14    16 1
    24    17    24 1
@<TRIPOS>SUBSTRUCTURE
     1 ST1         1 TEMP              0 ****  ****    0 ROOT
