@<TRIPOS>MOLECULE
ST2
   24    24     1     0     0
SMALL
bcc


@<TRIPOS>ATOM
      1 C'           0.0000     0.0000     0.0000 c          1 ST2       0.970200
      2 O1'          1.2140     0.0000     0.0000 o          1 ST2      -0.882800
      3 O2'         -0.6720     0.0000     1.1680 o          1 ST2      -0.882800
      4 C1          -0.7380    -0.0020    -1.2760 ca         1 ST2      -0.061600
      5 C2          -0.0420    -0.0010    -2.4880 ca         1 ST2      -0.114000
      6 C3          -0.7360    -0.0030    -3.6830 ca         1 ST2       0.008600
      7 N3          -0.0380    -0.0020    -4.8970 nv         1 ST2      -0.548200
      8 C4          -2.1310    -0.0030    -3.6790 ca         1 ST2      -0.178400
      9 N4          -2.8320    -0.0040    -4.8890 ns         1 ST2      -0.021100
     10 C4'         -3.6740    -1.0140    -5.1800 c          1 ST2       0.544100
     11 O4'         -3.8240    -1.9240    -4.3920 o          1 ST2      -0.624100
     12 CM4         -4.4300    -1.0150    -6.4850 c3         1 ST2      -0.070100
     13 C5          -2.8260     0.0020    -2.4730 ca         1 ST2       0.124100
     14 O5          -4.1860     0.0010    -2.4730 oh         1 ST2      -0.492100
     15 C6          -2.1350    -0.0030    -1.2760 ca         1 ST2      -0.131000
     16 H2           1.0400    -0.0500    -2.4900 ha         1 ST2       0.129000
     17 HN31        -0.0200    -0.8270    -5.4640 hn         1 ST2       0.258800
     18 HN32         0.4690     0.8120    -5.1810 hn         1 ST2       0.258800
     19 HN4         -2.7470     0.7710    -5.5160 hn         1 ST2       0.146500
     20 HM41        -5.0350    -0.1190    -6.5520 hc         1 ST2       0.012367
     21 HM42        -3.7280    -1.0400    -7.3090 hc         1 ST2       0.012367
     22 HM43        -5.0710    -1.8870    -6.5300 hc         1 ST2       0.012367
     23 HO5         -4.5000     0.7440    -1.9860 ho         1 ST2       0.385000
     24 H6          -2.6760    -0.0550    -0.3390 ha         1 ST2       0.140000
@<TRIPOS>BOND
     1     1     2 1   
     2     1     3 1   
     3     1     4 1   
     4     4     5 ar  
     5     4    15 ar  
     6     5     6 ar  
     7     5    16 1   
     8     6     7 1   
     9     6     8 ar  
    10     7    17 1   
    11     7    18 1   
    12     8     9 1   
    13     8    13 ar  
    14     9    10 1   
    15     9    19 1   
    16    10    11 2   
    17    10    12 1   
    18    12    20 1   
    19    12    21 1   
    20    12    22 1   
    21    13    14 1   
    22    13    15 ar  
    23    14    23 1   
    24    15    24 1   
@<TRIPOS>SUBSTRUCTURE
     1 ST2         1 TEMP              0 ****  ****    0 ROOT
