@<TRIPOS>MOLECULE
molecule
   23    23     1     0     0
SMALL
bcc


@<TRIPOS>ATOM
      1 C'           0.0000     0.0000     0.0000 c          1 ST3       0.883200
      2 O1'          1.2140     0.0000     0.0000 o          1 ST3      -0.839300
      3 O2'         -0.6740     0.0000     1.1670 o          1 ST3      -0.839300
      4 C1          -0.7380     0.0030    -1.2760 ca         1 ST3      -0.106600
      5 C2          -0.0420     0.0050    -2.4880 ca         1 ST3      -0.114000
      6 C3          -0.7370     0.0030    -3.6810 ca         1 ST3       0.098600
      7 N3          -0.0440     0.0030    -4.8970 nv         1 ST3      -0.984200
      8 C4          -2.1350     0.0090    -3.6740 ca         1 ST3      -0.005400
      9 N4          -2.8380     0.0120    -4.8800 ns         1 ST3      -0.460100
     10 C4'         -4.0500     0.5950    -4.9530 c          1 ST3       0.644100
     11 O4'         -4.4830     1.2120    -4.0020 o          1 ST3      -0.599100
     12 CM4         -4.8680     0.4830    -6.2130 c3         1 ST3      -0.174100
     13 C5          -2.8250     0.0060    -2.4680 ca         1 ST3      -0.149000
     14 C6          -2.1360     0.0040    -1.2770 ca         1 ST3      -0.092000
     15 H2           1.0400     0.0640    -2.4910 ha         1 ST3       0.152000
     16 HN31        -0.0520     0.8180    -5.4770 hn         1 ST3       0.409800
     17 HN32         0.4810    -0.8030    -5.1740 hn         1 ST3       0.409800
     18 HN4         -2.4570    -0.4490    -5.6820 hn         1 ST3       0.312500
     19 HM41        -5.8420     0.9290    -6.0520 hc         1 ST3       0.051700
     20 HM42        -4.3630     1.0020    -7.0190 hc         1 ST3       0.051700
     21 HM43        -4.9880    -0.5610    -6.4740 hc         1 ST3       0.051700
     22 H5          -3.9080    -0.0240    -2.4660 ha         1 ST3       0.139000
     23 H6          -2.6780    -0.0010    -0.3390 ha         1 ST3       0.158000
@<TRIPOS>BOND
     1     1     2 1
     2     1     3 1
     3     1     4 1
     4     4     5 ar
     5     4    14 ar
     6     5     6 ar
     7     5    15 1
     8     6     7 1
     9     6     8 ar
    10     7    16 1
    11     7    17 1
    12     8     9 1
    13     8    13 ar
    14     9    10 1
    15     9    18 1
    16    10    11 2
    17    10    12 1
    18    12    19 1
    19    12    20 1
    20    12    21 1
    21    13    14 ar
    22    13    22 1
    23    14    23 1
@<TRIPOS>SUBSTRUCTURE
     1 ST3         1 TEMP              0 ****  ****    0 ROOT
