@<TRIPOS>MOLECULE
ST4
   32    32     1     0     0
SMALL
bcc


@<TRIPOS>ATOM
      1 C'           0.0000     0.0000     0.0000 c          1 ST4       0.947200
      2 O1'          1.2150     0.0000     0.0000 o          1 ST4      -0.771300
      3 O2'         -0.6740     0.0000     1.1680 o          1 ST4      -0.771300
      4 C1          -0.7370    -0.0010    -1.2770 ca         1 ST4      -0.060600
      5 C2          -0.0410    -0.0010    -2.4880 ca         1 ST4      -0.135000
      6 C3          -0.7360    -0.0070    -3.6810 ca         1 ST4      -0.147400
      7 N3          -0.0430    -0.0060    -4.8960 nu         1 ST4      -0.393600
      8 C3'          1.4220     0.0000    -4.9040 c3         1 ST4       0.120900
      9 N1           1.9100    -0.6930    -6.1030 nz         1 ST4      -0.048600
     10 N2           1.9050     1.3870    -4.9090 nz         1 ST4      -0.048600
     11 C4          -2.1330    -0.0020    -3.6750 ca         1 ST4      -0.080400
     12 N4          -2.8360    -0.0020    -4.8820 ns         1 ST4      -0.068100
     13 C4'         -4.0480     0.5800    -4.9540 c          1 ST4       0.559100
     14 O4          -4.4830     1.1980    -4.0050 o          1 ST4      -0.582100
     15 CM4         -4.8660     0.4650    -6.2150 c3         1 ST4      -0.065100
     16 C5          -2.8240    -0.0030    -2.4700 ca         1 ST4      -0.087000
     17 C6          -2.1360    -0.0020    -1.2770 ca         1 ST4       0.006000
     18 H2           1.0400    -0.0720    -2.4910 ha         1 ST4       0.094000
     19 HN3         -0.5450    -0.0960    -5.7570 hn         1 ST4       0.311800
     20 H3'          1.7890    -0.5060    -4.0190 hx         1 ST4       0.164700
     21 HN11         1.6180    -0.1930    -6.9200 hn         1 ST4       0.250300
     22 HN12         2.9100    -0.7370    -6.0790 hn         1 ST4       0.250300
     23 HN21         2.8820     1.4010    -4.6940 hn         1 ST4       0.250300
     24 HN22         1.7580     1.7880    -5.8140 hn         1 ST4       0.250300
     25 HN4         -2.4590    -0.4740    -5.6800 hn         1 ST4       0.141500
     26 HM41        -4.3910     1.0320    -7.0070 hc         1 ST4       0.030033
     27 HM42        -5.8610     0.8570    -6.0380 hc         1 ST4       0.030033
     28 HM43        -4.9350    -0.5760    -6.5080 hc         1 ST4       0.030033
     29 H5          -3.9070    -0.0020    -2.4680 ha         1 ST4       0.160000
     30 H6          -2.6780    -0.0030    -0.3390 ha         1 ST4       0.160000
     31 H13          1.5410    -1.6230    -6.1240 hn         1 ST4       0.250300
     32 H23          1.4050     1.9180    -4.2240 hn         1 ST4       0.250300
@<TRIPOS>BOND
     1     1     2 1   
     2     1     3 1   
     3     1     4 1   
     4     4     5 ar  
     5     4    17 ar  
     6     5     6 ar  
     7     5    18 1   
     8     6     7 1   
     9     6    11 ar  
    10     7     8 1   
    11     7    19 1   
    12     8     9 1   
    13     8    10 1   
    14     8    20 1   
    15     9    21 1   
    16     9    22 1   
    17     9    31 1   
    18    10    23 1   
    19    10    24 1   
    20    10    32 1   
    21    11    12 1   
    22    11    16 ar  
    23    12    13 1   
    24    12    25 1   
    25    13    14 2   
    26    13    15 1   
    27    15    26 1   
    28    15    27 1   
    29    15    28 1   
    30    16    17 ar  
    31    16    29 1   
    32    17    30 1   
@<TRIPOS>SUBSTRUCTURE
     1 ST4         1 TEMP              0 ****  ****    0 ROOT
