@<TRIPOS>MOLECULE
ST5
   29    29     1     0     0
SMALL
bcc


@<TRIPOS>ATOM
      1 C'           0.0000     0.0000     0.0000 c          1 ST5       0.970200
      2 O1'          1.2160     0.0000     0.0000 o          1 ST5      -0.880800
      3 O2'         -0.6730     0.0000     1.1670 o          1 ST5      -0.880800
      4 C1          -0.7380     0.0020    -1.2770 ca         1 ST5      -0.084600
      5 C2          -0.0400     0.0020    -2.4880 ca         1 ST5      -0.071000
      6 C3          -0.7360    -0.0030    -3.6810 ca         1 ST5      -0.150400
      7 N3          -0.0410    -0.0030    -4.8980 ns         1 ST5      -0.036100
      8 C3'          1.2120     0.4880    -4.9580 c          1 ST5       0.526100
      9 O3           1.6990     1.0270    -3.9870 o          1 ST5      -0.565100
     10 CM3          2.0090     0.3690    -6.2310 c3         1 ST5       0.153400
     11 O3'          3.2970     0.9590    -6.0460 oh         1 ST5      -0.545800
     12 C4          -2.1320     0.0040    -3.6750 ca         1 ST5      -0.170400
     13 N4          -2.8340     0.0040    -4.8820 ns         1 ST5      -0.024100
     14 C4'         -4.0020     0.6700    -4.9800 c          1 ST5       0.547100
     15 O4          -4.4830     1.1980    -4.0010 o          1 ST5      -0.630100
     16 CM4         -4.7070     0.7580    -6.3090 c3         1 ST5      -0.073100
     17 C5          -2.8230     0.0030    -2.4700 ca         1 ST5      -0.119000
     18 C6          -2.1350     0.0020    -1.2780 ca         1 ST5      -0.066000
     19 H2           1.0400    -0.0800    -2.4900 ha         1 ST5       0.165000
     20 HN3         -0.4740    -0.3700    -5.7220 hn         1 ST5       0.138500
     21 HM31         1.4890     0.8810    -7.0320 h1         1 ST5      -0.014800
     22 HM32         2.1250    -0.6770    -6.4880 h1         1 ST5      -0.014800
     23 HO3          3.7910     0.8930    -6.8460 ho         1 ST5       0.373000
     24 HN4         -2.4890    -0.5200    -5.6610 hn         1 ST5       0.143500
     25 HM41        -5.7370     1.0560    -6.1520 hc         1 ST5       0.015367
     26 HM42        -4.2110     1.4910    -6.9340 hc         1 ST5       0.015367
     27 HM43        -4.6820    -0.2090    -6.7970 hc         1 ST5       0.015367
     28 H5          -3.9070     0.0060    -2.4690 ha         1 ST5       0.129000
     29 H6          -2.6770     0.0010    -0.3400 ha         1 ST5       0.133000
@<TRIPOS>BOND
     1     1     2 1   
     2     1     3 1   
     3     1     4 1   
     4     4     5 ar  
     5     4    18 ar  
     6     5     6 ar  
     7     5    19 1   
     8     6     7 1   
     9     6    12 ar  
    10     7     8 1   
    11     7    20 1   
    12     8     9 2   
    13     8    10 1   
    14    10    11 1   
    15    10    21 1   
    16    10    22 1   
    17    11    23 1   
    18    12    13 1   
    19    12    17 ar  
    20    13    14 1   
    21    13    24 1   
    22    14    15 2   
    23    14    16 1   
    24    16    25 1   
    25    16    26 1   
    26    16    27 1   
    27    17    18 ar  
    28    17    28 1   
    29    18    29 1   
@<TRIPOS>SUBSTRUCTURE
     1 ST5         1 TEMP              0 ****  ****    0 ROOT
