@<TRIPOS>MOLECULE
molecule
   31    31     1     0     0
SMALL
bcc


@<TRIPOS>ATOM
      1 C'           0.0000     0.0000     0.0000 c          1 ST6       0.886200
      2 O1'          1.2530     0.0000     0.0000 o          1 ST6      -0.818300
      3 O2'         -0.6880     0.0000     1.0370 o          1 ST6      -0.818300
      4 C1          -0.6590    -0.0460    -1.2120 ca         1 ST6      -0.053600
      5 C2          -0.2210    -0.8970    -2.1970 ca         1 ST6      -0.108000
      6 C3          -0.7940    -0.8930    -3.4420 ca         1 ST6      -0.055400
      7 N3          -0.2580    -1.6650    -4.4240 ns         1 ST6      -0.365100
      8 C3'          0.5730    -1.0620    -5.2630 c          1 ST6       0.609100
      9 O3           0.6120     0.1680    -5.3990 o          1 ST6      -0.616100
     10 CM3          1.4830    -1.9060    -6.0640 c3         1 ST6       0.009800
     11 N3'          2.5980    -1.0220    -6.4520 nz         1 ST6      -0.796600
     12 C4          -1.8170    -0.0060    -3.7350 ca         1 ST6       0.047600
     13 N4          -2.3400     0.0370    -5.0070 ns         1 ST6      -0.473100
     14 C4'         -3.3600    -0.7300    -5.3700 c          1 ST6       0.640100
     15 O4          -3.9090    -1.5040    -4.5800 o          1 ST6      -0.597100
     16 CM4         -3.8800    -0.6330    -6.7920 c3         1 ST6      -0.171100
     17 C5          -2.2850     0.8420    -2.7530 ca         1 ST6      -0.130000
     18 C6          -1.7000     0.8370    -1.4990 ca         1 ST6      -0.072000
     19 H2           0.5900    -1.5830    -1.9860 ha         1 ST6       0.139000
     20 HN3         -0.2270    -2.6600    -4.3180 hn         1 ST6       0.330500
     21 HM31         0.9730    -2.2760    -6.9450 hx         1 ST6       0.120700
     22 HM32         1.8500    -2.7330    -5.4680 hx         1 ST6       0.120700
     23 HN31         3.3300    -1.5680    -6.8600 hn         1 ST6       0.463467
     24 HN32         2.2730    -0.3490    -7.1180 hn         1 ST6       0.463467
     25 HN33         2.9460    -0.5490    -5.6420 hn         1 ST6       0.463467
     26 HN4         -1.9410     0.6650    -5.6770 hn         1 ST6       0.318500
     27 HM41        -4.7490    -1.2710    -6.9030 hc         1 ST6       0.055033
     28 HM42        -4.1550     0.3920    -7.0070 hc         1 ST6       0.055033
     29 HM43        -3.1080    -0.9520    -7.4810 hc         1 ST6       0.055033
     30 H5          -3.0890     1.5340    -2.9730 ha         1 ST6       0.135000
     31 H6          -2.0690     1.5050    -0.7300 ha         1 ST6       0.162000
@<TRIPOS>BOND
     1     1     2 1
     2     1     3 1
     3     1     4 1
     4     4     5 ar
     5     4    18 ar
     6     5     6 ar
     7     5    19 1
     8     6     7 1
     9     6    12 ar
    10     7     8 1
    11     7    20 1
    12     8     9 2
    13     8    10 1
    14    10    11 1
    15    10    21 1
    16    10    22 1
    17    11    23 1
    18    11    24 1
    19    11    25 1
    20    12    13 1
    21    12    17 ar
    22    13    14 1
    23    13    26 1
    24    14    15 2
    25    14    16 1
    26    16    27 1
    27    16    28 1
    28    16    29 1
    29    17    18 ar
    30    17    30 1
    31    18    31 1
@<TRIPOS>SUBSTRUCTURE
     1 ST6         1 TEMP              0 ****  ****    0 ROOT
