@<TRIPOS>MOLECULE
ST7
   93    98     1     0     0
SMALL
bcc


@<TRIPOS>ATOM
      1 C9           0.0000     0.0000     0.0000 c3         1 ST7      -0.054000
      2 N6           1.4650     0.0000     0.0000 ns         1 ST7      -0.019000
      3 C8           2.1400     0.0000     1.1660 c2         1 ST7       0.206000
      4 O3           1.5320     0.0010     2.2190 o          1 ST7      -0.443000
      5 N4           3.4880     0.0000     1.1650 ns         1 ST7       0.062000
      6 C7           4.1790     0.0010     2.3610 c2         1 ST7      -0.071000
      7 N5           3.5280     0.0010     3.4890 n2         1 ST7      -0.317000
      8 N3           5.5530     0.0010     2.3610 n7         1 ST7       0.008000
      9 C6           6.2860     0.0020     3.6290 c3         1 ST7      -0.048000
     10 C5           7.7900     0.0010     3.3480 c3         1 ST7      -0.127000
     11 C4           8.5540     0.1260     4.6680 c3         1 ST7      -0.140000
     12 C2          10.0520     0.2510     4.3800 c3         1 ST7      -0.096000
     13 C1          10.7900     0.5170     5.6660 c2         1 ST7       0.226000
     14 O2          11.0480    -0.3990     6.4180 o          1 ST7      -0.418000
     15 N1          11.1650     1.7730     5.9810 n          1 ST7       0.023000
     16 C12         10.7640     2.8930     5.1260 c3         1 ST7      -0.028500
     17 C13          9.5160     3.5270     5.6820 ca         1 ST7      -0.117000
     18 C20          9.6090     4.4690     6.6900 ca         1 ST7      -0.094750
     19 C21          8.4630     5.0500     7.2010 ca         1 ST7      -0.098250
     20 C22          7.2240     4.6900     6.7030 ca         1 ST7      -0.091500
     21 C23          7.1320     3.7490     5.6950 ca         1 ST7      -0.098250
     22 C24          8.2780     3.1710     5.1800 ca         1 ST7      -0.094750
     23 C11         11.9740     2.0170     7.1780 c3         1 ST7      -0.028500
     24 C14         13.4360     1.9400     6.8210 ca         1 ST7      -0.117000
     25 C15         14.1020     0.7310     6.8940 ca         1 ST7      -0.094750
     26 C16         15.4430     0.6600     6.5670 ca         1 ST7      -0.098250
     27 C17         16.1190     1.7980     6.1660 ca         1 ST7      -0.091500
     28 C18         15.4520     3.0070     6.0930 ca         1 ST7      -0.098250
     29 C19         14.1090     3.0760     6.4150 ca         1 ST7      -0.094750
     30 N2          10.5400    -0.9960     3.7850 ns         1 ST7       0.042000
     31 C3          11.6370    -0.9850     3.0020 c2         1 ST7       0.194000
     32 O1          12.2200     0.0580     2.7900 o          1 ST7      -0.391000
     33 C10         12.1390    -2.2680     2.3910 c3         1 ST7      -0.117000
     34 N7          13.3340    -1.9920     1.5890 na         1 ST7       0.412000
     35 N8          13.3500    -1.6790     0.3410 n2         1 ST7      -0.201000
     36 N9          14.5590    -1.5010    -0.0570 n2         1 ST7      -0.051000
     37 C25         15.3890    -1.7050     0.9730 c2         1 ST7      -0.139000
     38 C26         14.6110    -2.0150     2.0360 c2         1 ST7      -0.355000
     39 C27         15.0750    -2.3270     3.4360 c3         1 ST7       0.161000
     40 O4          16.5000    -2.2460     3.4950 os         1 ST7      -0.171000
     41 N11         17.0410    -2.5230     4.7740 n2         1 ST7       0.077000
     42 C28         18.3200    -2.4820     4.9590 c2         1 ST7      -0.367000
     43 C29         18.8830    -2.7710     6.2900 c3         1 ST7      -0.133000
     44 C30         18.0360    -3.2230     7.3950 ca         1 ST7      -0.067000
     45 C34         16.6570    -3.4010     7.2370 ca         1 ST7      -0.146000
     46 C35         15.9080    -3.8240     8.2940 ca         1 ST7      -0.067000
     47 C36         16.4980    -4.0800     9.5290 ca         1 ST7      -0.100000
     48 C37         17.8370    -3.9170     9.7170 ca         1 ST7      -0.060000
     49 C31         18.6420    -3.4820     8.6490 ca         1 ST7      -0.048000
     50 N10         19.9580    -3.3120     8.7990 n2         1 ST7       0.009000
     51 C32         20.7300    -2.9080     7.8220 c2         1 ST7      -0.097000
     52 C33         20.2440    -2.6300     6.5490 c2         1 ST7      -0.037000
     53 H1          -0.3610    -0.0030    -1.0210 h1         1 ST7       0.050333
     54 H2          -0.3610     0.8860     0.5080 h1         1 ST7       0.050333
     55 H3          -0.3610    -0.8830     0.5130 h1         1 ST7       0.050333
     56 H4           1.9660    -0.0020    -0.8670 hn         1 ST7       0.079000
     57 H5           3.9870    -0.0210     0.2990 hn         1 ST7       0.070000
     58 H6           2.5270     0.0000     3.4890 hn         1 ST7       0.181000
     59 H7           6.0530    -0.0270     1.4950 hn         1 ST7       0.075000
     60 H8           6.0240     0.8860     4.1970 h1         1 ST7       0.067000
     61 H9           6.0240    -0.8830     4.1980 h1         1 ST7       0.067000
     62 H10          8.0380     0.8380     2.7070 hc         1 ST7       0.057000
     63 H11          8.0660    -0.9250     2.8580 hc         1 ST7       0.057000
     64 H12          8.2140     1.0060     5.2000 hc         1 ST7       0.091000
     65 H13          8.3750    -0.7540     5.2740 hc         1 ST7       0.091000
     66 H14         10.2200     1.0700     3.6910 h1         1 ST7       0.117000
     67 H15         10.5700     2.5300     4.1240 h1         1 ST7       0.080250
     68 H16         11.5600     3.6270     5.0970 h1         1 ST7       0.080250
     69 H17         10.5800     4.7510     7.0800 ha         1 ST7       0.113000
     70 H18          8.5360     5.7880     7.9900 ha         1 ST7       0.104250
     71 H19          6.3260     5.1440     7.1040 ha         1 ST7       0.104000
     72 H20          6.1620     3.4690     5.3040 ha         1 ST7       0.104250
     73 H21          8.2040     2.4330     4.3900 ha         1 ST7       0.113000
     74 H22         11.7450     1.2690     7.9270 h1         1 ST7       0.080250
     75 H23         11.7500     3.0020     7.5700 h1         1 ST7       0.080250
     76 H24         13.5740    -0.1610     7.2080 ha         1 ST7       0.113000
     77 H25         15.9650    -0.2880     6.6240 ha         1 ST7       0.104250
     78 H26         17.1700     1.7430     5.9110 ha         1 ST7       0.104000
     79 H27         15.9800     3.8980     5.7760 ha         1 ST7       0.104250
     80 H28         13.5870     4.0240     6.3580 ha         1 ST7       0.113000
     81 H29         10.0730    -1.8590     3.9790 hn         1 ST7       0.096000
     82 H30         11.3690    -2.6910     1.7570 h1         1 ST7       0.096000
     83 H31         12.3860    -2.9700     3.1770 h1         1 ST7       0.096000
     84 H32         16.4700    -1.6310     0.9600 h4         1 ST7       0.163000
     85 H33         14.6440    -1.6130     4.1270 h1         1 ST7       0.045000
     86 H34         14.7590    -3.3270     3.7070 h1         1 ST7       0.045000
     87 H35         18.3270    -1.7810     5.7850 DU         1 ST7       0.321000
     88 H36         16.1880    -3.2050     6.2800 ha         1 ST7       0.158000
     89 H37         14.8410    -3.9620     8.1730 ha         1 ST7       0.105000
     90 H38         15.8820    -4.4150    10.3550 ha         1 ST7       0.107000
     91 H39         18.2800    -4.1210    10.6840 ha         1 ST7       0.119000
     92 H40         21.7910    -2.7950     8.0100 h4         1 ST7       0.122000
     93 H41         20.9160    -2.2980     5.7680 ha         1 ST7       0.130000
@<TRIPOS>BOND
     1     1     2 1   
     2     1    53 1   
     3     1    54 1   
     4     1    55 1   
     5     2     3 1   
     6     2    56 1   
     7     3     4 1   
     8     3     5 1   
     9     5     6 1   
    10     5    57 1   
    11     6     7 1   
    12     6     8 1   
    13     7    58 1   
    14     8     9 1   
    15     8    59 1   
    16     9    10 1   
    17     9    60 1   
    18     9    61 1   
    19    10    11 1   
    20    10    62 1   
    21    10    63 1   
    22    11    12 1   
    23    11    64 1   
    24    11    65 1   
    25    12    13 1   
    26    12    30 1   
    27    12    66 1   
    28    13    14 1   
    29    13    15 1   
    30    15    16 1   
    31    15    23 1   
    32    16    17 1   
    33    16    67 1   
    34    16    68 1   
    35    17    18 1   
    36    17    22 1   
    37    18    19 1   
    38    18    69 1   
    39    19    20 1   
    40    19    70 1   
    41    20    21 1   
    42    20    71 1   
    43    21    22 1   
    44    21    72 1   
    45    22    73 1   
    46    23    24 1   
    47    23    74 1   
    48    23    75 1   
    49    24    25 1   
    50    24    29 1   
    51    25    26 1   
    52    25    76 1   
    53    26    27 1   
    54    26    77 1   
    55    27    28 1   
    56    27    78 1   
    57    28    29 1   
    58    28    79 1   
    59    29    80 1   
    60    30    31 1   
    61    30    81 1   
    62    31    32 1   
    63    31    33 1   
    64    33    34 1   
    65    33    82 1   
    66    33    83 1   
    67    34    35 1   
    68    34    38 1   
    69    35    36 1   
    70    36    37 1   
    71    37    38 1   
    72    37    84 1   
    73    38    39 1   
    74    39    40 1   
    75    39    85 1   
    76    39    86 1   
    77    40    41 1   
    78    41    42 1   
    79    42    43 1   
    80    42    87 1   
    81    43    44 1   
    82    43    52 1   
    83    43    87 1   
    84    44    45 1   
    85    44    49 1   
    86    45    46 1   
    87    45    88 1   
    88    46    47 1   
    89    46    89 1   
    90    47    48 1   
    91    47    90 1   
    92    48    49 1   
    93    48    91 1   
    94    49    50 1   
    95    50    51 1   
    96    51    52 1   
    97    51    92 1   
    98    52    93 1   
@<TRIPOS>SUBSTRUCTURE
     1 ST7         1 TEMP              0 ****  ****    0 ROOT
