@<TRIPOS>MOLECULE
molecule
   93    97     1     0     0
SMALL
bcc


@<TRIPOS>ATOM
      1 C9           0.0000     0.0000     0.0000 c3         1 ST7       0.123300
      2 N6           1.4650     0.0000     0.0000 ns         1 ST7      -0.610900
      3 C8           2.1400     0.0000     1.1660 c          1 ST7       0.775100
      4 O3           1.5320     0.0010     2.2190 o          1 ST7      -0.566100
      5 N4           3.4880     0.0000     1.1650 ns         1 ST7      -0.497400
      6 C7           4.1790     0.0010     2.3610 c2         1 ST7       0.694800
      7 N5           3.5280     0.0010     3.4890 n2         1 ST7      -0.868100
      8 N3           5.5530     0.0010     2.3610 nu         1 ST7      -0.950200
      9 C6           6.2860     0.0020     3.6290 c3         1 ST7       0.243800
     10 C5           7.7900     0.0010     3.3480 c3         1 ST7      -0.098400
     11 C4           8.5540     0.1260     4.6680 c3         1 ST7      -0.104400
     12 C2          10.0520     0.2510     4.3800 c3         1 ST7       0.045700
     13 C1          10.7900     0.5170     5.6660 c          1 ST7       0.657100
     14 O2          11.0480    -0.3990     6.4180 o          1 ST7      -0.612100
     15 N1          11.1650     1.7730     5.9810 n          1 ST7      -0.468800
     16 C12         10.7640     2.8930     5.1260 c3         1 ST7       0.148300
     17 C13          9.5160     3.5270     5.6820 ca         1 ST7      -0.115800
     18 C20          9.6090     4.4690     6.6900 ca         1 ST7      -0.118750
     19 C21          8.4630     5.0500     7.2010 ca         1 ST7      -0.127000
     20 C22          7.2240     4.6900     6.7030 ca         1 ST7      -0.118500
     21 C23          7.1320     3.7490     5.6950 ca         1 ST7      -0.127000
     22 C24          8.2780     3.1710     5.1800 ca         1 ST7      -0.118750
     23 C11         11.9740     2.0170     7.1780 c3         1 ST7       0.148300
     24 C14         13.4360     1.9400     6.8210 ca         1 ST7      -0.115800
     25 C15         14.1020     0.7310     6.8940 ca         1 ST7      -0.118750
     26 C16         15.4430     0.6600     6.5670 ca         1 ST7      -0.127000
     27 C17         16.1190     1.7980     6.1660 ca         1 ST7      -0.118500
     28 C18         15.4520     3.0070     6.0930 ca         1 ST7      -0.127000
     29 C19         14.1090     3.0760     6.4150 ca         1 ST7      -0.118750
     30 N2          10.5400    -0.9960     3.7850 ns         1 ST7      -0.564900
     31 C3          11.6370    -0.9850     3.0020 c          1 ST7       0.637100
     32 O1          12.2200     0.0580     2.7900 o          1 ST7      -0.572100
     33 C10         12.1390    -2.2680     2.3910 c3         1 ST7      -0.014700
     34 N7          13.3340    -1.9920     1.5890 na         1 ST7       0.141400
     35 N8          13.3500    -1.6790     0.3410 nc         1 ST7      -0.191800
     36 N9          14.5590    -1.5010    -0.0570 nd         1 ST7      -0.358000
     37 C25         15.3890    -1.7050     0.9730 cd         1 ST7       0.300200
     38 C26         14.6110    -2.0150     2.0360 cc         1 ST7      -0.245900
     39 C27         15.0750    -2.3270     3.4360 c3         1 ST7       0.229700
     40 O4          16.5000    -2.2460     3.4950 os         1 ST7      -0.200300
     41 N11         17.0410    -2.5230     4.7740 n2         1 ST7      -0.438200
     42 C28         18.3200    -2.4820     4.9590 ce         1 ST7       0.445800
     43 C29         18.8830    -2.7710     6.2900 ca         1 ST7      -0.093900
     44 C30         18.0360    -3.2230     7.3950 ca         1 ST7      -0.133300
     45 C34         16.6570    -3.4010     7.2370 ca         1 ST7      -0.121000
     46 C35         15.9080    -3.8240     8.2940 ca         1 ST7      -0.123000
     47 C36         16.4980    -4.0800     9.5290 ca         1 ST7      -0.119000
     48 C37         17.8370    -3.9170     9.7170 ca         1 ST7      -0.163300
     49 C31         18.6420    -3.4820     8.6490 ca         1 ST7       0.414600
     50 N10         19.9580    -3.3120     8.7990 nb         1 ST7      -0.669000
     51 C32         20.7300    -2.9080     7.8220 ca         1 ST7       0.427200
     52 C33         20.2440    -2.6300     6.5490 ca         1 ST7      -0.226300
     53 H1          -0.3610     0.8860     0.5090 h1         1 ST7       0.042367
     54 H2          -0.3610    -0.0020    -1.0210 h1         1 ST7       0.042367
     55 H3          -0.3610    -0.8830     0.5130 h1         1 ST7       0.042367
     56 H4           1.9660    -0.0020    -0.8670 hn         1 ST7       0.301500
     57 H5           3.9870    -0.0220     0.2990 hn         1 ST7       0.311500
     58 H6           4.0280     0.0010     4.3560 hn         1 ST7       0.395400
     59 H7           6.0530    -0.0270     1.4950 hn         1 ST7       0.420800
     60 H8           6.0240    -0.8830     4.1980 h1         1 ST7       0.044700
     61 H9           6.0240     0.8860     4.1970 h1         1 ST7       0.044700
     62 H10          8.0660    -0.9250     2.8580 hc         1 ST7       0.052200
     63 H11          8.0380     0.8380     2.7070 hc         1 ST7       0.052200
     64 H12          8.2140     1.0060     5.2000 hc         1 ST7       0.074700
     65 H13          8.3750    -0.7540     5.2740 hc         1 ST7       0.074700
     66 H14         10.2200     1.0700     3.6910 h1         1 ST7       0.094700
     67 H15         11.5600     3.6270     5.0970 h1         1 ST7       0.067450
     68 H16         10.5700     2.5300     4.1240 h1         1 ST7       0.067450
     69 H17         10.5800     4.7510     7.0800 ha         1 ST7       0.132500
     70 H18          8.5360     5.7880     7.9900 ha         1 ST7       0.133250
     71 H19          6.3260     5.1440     7.1040 ha         1 ST7       0.132000
     72 H20          6.1620     3.4690     5.3040 ha         1 ST7       0.133250
     73 H21          8.2040     2.4330     4.3900 ha         1 ST7       0.132500
     74 H22         11.7500     3.0020     7.5700 h1         1 ST7       0.067450
     75 H23         11.7450     1.2690     7.9270 h1         1 ST7       0.067450
     76 H24         13.5740    -0.1610     7.2080 ha         1 ST7       0.132500
     77 H25         15.9650    -0.2880     6.6240 ha         1 ST7       0.133250
     78 H26         17.1700     1.7430     5.9110 ha         1 ST7       0.132000
     79 H27         15.9800     3.8980     5.7760 ha         1 ST7       0.133250
     80 H28         13.5870     4.0240     6.3580 ha         1 ST7       0.132500
     81 H29         10.0730    -1.8590     3.9790 hn         1 ST7       0.323500
     82 H30         11.3690    -2.6910     1.7570 h1         1 ST7       0.091200
     83 H31         12.3860    -2.9700     3.1770 h1         1 ST7       0.091200
     84 H32         16.4700    -1.6310     0.9600 h4         1 ST7       0.062100
     85 H33         14.7590    -3.3270     3.7070 h1         1 ST7       0.050700
     86 H34         14.6440    -1.6130     4.1270 h1         1 ST7       0.050700
     87 H35         18.9790    -2.2360     4.1340 h4         1 ST7       0.010800
     88 H36         16.1880    -3.2050     6.2800 ha         1 ST7       0.175000
     89 H37         14.8410    -3.9620     8.1730 ha         1 ST7       0.133000
     90 H38         15.8820    -4.4150    10.3550 ha         1 ST7       0.134000
     91 H39         18.2800    -4.1210    10.6840 ha         1 ST7       0.150000
     92 H40         21.7910    -2.7950     8.0100 h4         1 ST7       0.025100
     93 H41         20.9160    -2.2980     5.7680 ha         1 ST7       0.142000
@<TRIPOS>BOND
     1    21    20 ar
     2    21    22 ar
     3    20    19 ar
     4    22    17 ar
     5    19    18 ar
     6    17    18 ar
     7    17    16 1
     8    23    24 1
     9    23    15 1
    10    25    24 ar
    11    25    26 ar
    12    24    29 ar
    13    16    15 1
    14    26    27 ar
    15    29    28 ar
    16    27    28 ar
    17    15    13 1
    18     1     2 1
    19     4     3 2
    20    13    14 2
    21    13    12 1
    22     2     3 1
    23     3     5 1
    24    12    30 1
    25    12    11 1
    26    30    31 1
    27     7     6 2
    28    33    31 1
    29    33    34 1
    30    31    32 2
    31     5     6 1
    32     6     8 1
    33    35    34 1
    34    35    36 2
    35    10    11 1
    36    10     9 1
    37    34    38 1
    38     8     9 1
    39    36    37 1
    40    38    37 2
    41    38    39 1
    42    39    40 1
    43    40    41 1
    44    41    42 2
    45    42    43 1
    46    52    43 ar
    47    52    51 ar
    48    43    44 ar
    49    51    50 ar
    50    44    45 ar
    51    44    49 ar
    52    50    49 ar
    53    45    46 ar
    54    49    48 ar
    55    46    47 ar
    56    48    47 ar
    57     1    53 1
    58     1    54 1
    59     1    55 1
    60     2    56 1
    61     5    57 1
    62     7    58 1
    63     8    59 1
    64     9    60 1
    65     9    61 1
    66    10    62 1
    67    10    63 1
    68    11    64 1
    69    11    65 1
    70    12    66 1
    71    16    67 1
    72    16    68 1
    73    18    69 1
    74    19    70 1
    75    20    71 1
    76    21    72 1
    77    22    73 1
    78    23    74 1
    79    23    75 1
    80    25    76 1
    81    26    77 1
    82    27    78 1
    83    28    79 1
    84    29    80 1
    85    30    81 1
    86    33    82 1
    87    33    83 1
    88    37    84 1
    89    39    85 1
    90    39    86 1
    91    42    87 1
    92    45    88 1
    93    46    89 1
    94    47    90 1
    95    48    91 1
    96    51    92 1
    97    52    93 1
@<TRIPOS>SUBSTRUCTURE
     1 ST7         1 TEMP              0 ****  ****    0 ROOT
