@<TRIPOS>MOLECULE
molecule
   50    52     1     0     0
SMALL
bcc


@<TRIPOS>ATOM
      1 C2           0.0000     0.0000     0.0000 ca         1 ST8       1.035900
      2 C10          3.7670     0.0170    -0.2660 c3         1 ST8       0.113400
      3 C11          5.2940     0.0230    -0.3580 c3         1 ST8      -0.012700
      4 C12          5.7160     0.0350    -1.8290 c3         1 ST8      -0.155900
      5 C13          7.2440     0.0430    -1.9210 c3         1 ST8      -0.059900
      6 C14          7.7910     1.2880    -1.2220 c3         1 ST8      -0.079400
      7 C15          7.3690     1.2760     0.2480 c3         1 ST8      -0.059900
      8 C16          5.8410     1.2690     0.3400 c3         1 ST8      -0.155900
      9 C19         -4.1190    -0.4530    -2.3060 ca         1 ST8      -0.045500
     10 C20         -4.7980     0.3150    -1.3560 ca         1 ST8      -0.252600
     11 C21         -4.0800     0.9750    -0.3560 ca         1 ST8      -0.045500
     12 C22         -2.7090     0.8700    -0.3090 ca         1 ST8      -0.148000
     13 N25         -6.9580    -0.2100    -2.3750 nz         1 ST8      -0.677400
     14 N3           1.3250     0.0000     0.0000 nb         1 ST8      -0.910000
     15 C4           2.0220     0.0000     1.1240 ca         1 ST8       0.778600
     16 O6           3.3720     0.0050     1.1060 os         1 ST8      -0.339100
     17 C5           1.2810    -0.0120     2.3950 ca         1 ST8      -0.375200
     18 N7           1.9060    -0.0190     3.5620 ne         1 ST8      -0.002100
     19 C6          -0.1890    -0.0180     2.3060 ca         1 ST8       0.843200
     20 N1          -0.7380    -0.0110     1.1000 nb         1 ST8      -0.919000
     21 N2          -0.6480     0.0060    -1.2130 nu         1 ST8      -0.738300
     22 C17         -2.0350     0.1100    -1.2610 ca         1 ST8       0.253600
     23 C18         -2.7470    -0.5490    -2.2590 ca         1 ST8      -0.148000
     24 O8           3.1180    -0.1350     3.6030 o          1 ST8      -0.201300
     25 O24         -6.8570     1.0900    -0.5780 o          1 ST8      -0.431100
     26 H101         3.3730     0.9040    -0.7470 h1         1 ST8       0.060700
     27 H102         3.3790    -0.8650    -0.7610 h1         1 ST8       0.060700
     28 H11          5.6920    -0.8620     0.1220 hc         1 ST8       0.042700
     29 H121         5.0930    -0.3320    -2.6350 hc         1 ST8       0.068450
     30 H122         5.8980    -0.8550    -1.2400 hc         1 ST8       0.068450
     31 H131         7.6370    -0.8430    -1.4370 hc         1 ST8       0.042450
     32 H132         7.5410     0.0540    -2.9620 hc         1 ST8       0.042450
     33 H141         7.3940     2.1740    -1.7030 hc         1 ST8       0.046700
     34 H142         8.8730     1.2900    -1.2860 hc         1 ST8       0.046700
     35 H151         7.7550     2.1600     0.7410 hc         1 ST8       0.042450
     36 H152         7.7620     0.3880     0.7280 hc         1 ST8       0.042450
     37 H161         5.5440     1.2570     1.3820 hc         1 ST8       0.068450
     38 H162         5.4480     2.1550    -0.1430 hc         1 ST8       0.068450
     39 H19         -4.6720    -0.9660    -3.0830 ha         1 ST8       0.140000
     40 H21         -4.6030     1.5690     0.3840 ha         1 ST8       0.140000
     41 H22         -2.1530     1.3820     0.4670 ha         1 ST8       0.178500
     42 H251        -6.6580     0.1200    -3.2710 hn         1 ST8       0.474800
     43 H252        -7.9370    -0.0340    -2.2660 hn         1 ST8       0.474800
     44 H9N1        -1.9130    -0.3470     3.3910 hn         1 ST8       0.463800
     45 H9N2        -0.5820     0.2750     4.3110 hn         1 ST8       0.463800
     46 H2          -0.1250    -0.0960    -2.0600 hn         1 ST8       0.486800
     47 H18         -2.2200    -1.1420    -2.9970 ha         1 ST8       0.178500
     48 N9          -0.9650    -0.0290     3.4380 nv         1 ST8      -0.955500
     49 H253        -6.8120    -1.1980    -2.3170 hn         1 ST8       0.474800
     50 C23         -6.2680     0.4250    -1.4080 c          1 ST8       0.509700
@<TRIPOS>BOND
     1     1    14 ar
     2     1    20 ar
     3     1    21 1
     4     2     3 1
     5     2    16 1
     6     2    26 1
     7     2    27 1
     8     3     4 1
     9     3     8 1
    10     3    28 1
    11     4     5 1
    12     4    29 1
    13     4    30 1
    14     5     6 1
    15     5    31 1
    16     5    32 1
    17     6     7 1
    18     6    33 1
    19     6    34 1
    20     7     8 1
    21     7    35 1
    22     7    36 1
    23     8    37 1
    24     8    38 1
    25     9    10 ar
    26     9    23 ar
    27     9    39 1
    28    10    11 ar
    29    10    50 1
    30    11    12 ar
    31    11    40 1
    32    12    22 ar
    33    12    41 1
    34    13    50 1
    35    13    42 1
    36    13    43 1
    37    14    15 ar
    38    15    16 1
    39    15    17 ar
    40    17    18 1
    41    17    19 ar
    42    18    24 2
    43    48    19 1
    44    48    44 1
    45    48    45 1
    46    19    20 ar
    47    21    22 1
    48    21    46 1
    49    22    23 ar
    50    23    47 1
    51    50    25 2
    52    49    13 1
@<TRIPOS>SUBSTRUCTURE
     1 ST8         1 TEMP              0 ****  ****    0 ROOT
