@<TRIPOS>MOLECULE
STB
   40    40     1     0     0
SMALL
bcc


@<TRIPOS>ATOM
      1 C1           0.0000     0.0000     0.0000 ca         1 STB      -0.037600
      2 C2           1.3960     0.0000     0.0000 ca         1 STB      -0.077500
      3 C3           2.0830     0.0000     1.1960 ca         1 STB       0.007500
      4 C4           1.3910    -0.0000     2.3940 ca         1 STB      -0.223500
      5 C5           0.0080    -0.0060     2.4000 ca         1 STB       0.007500
      6 C6          -0.6910     0.0000     1.2110 ca         1 STB      -0.077500
      7 C7          -0.7430     0.0010    -1.2790 c          1 STB       0.559700
      8 O7          -0.1370     0.0020    -2.3330 o          1 STB      -0.612100
      9 N           -2.0890     0.0020    -1.2750 ns         1 STB      -0.169900
     10 C1'         -2.8240     0.0030    -2.5430 c3         1 STB       0.045000
     11 C2'         -4.3290     0.0030    -2.2590 c3         1 STB      -0.039400
     12 C3'         -5.0960     0.0040    -3.5820 c3         1 STB      -0.022400
     13 C4'         -6.6000     0.0030    -3.2990 c3         1 STB       0.124800
     14 N5'         -7.3380     0.0040    -4.5690 n7         1 STB      -0.525200
     15 C6'         -8.7660     0.0030    -4.2280 c3         1 STB       0.265900
     16 S7'         -9.3550     1.7120    -4.0860 sh         1 STB      -0.405900
     17 S            2.2760    -0.0020     3.9170 sy         1 STB       0.940200
     18 O1S          3.5620    -0.5280     3.6170 o          1 STB      -0.494800
     19 O2S          1.3780    -0.5280     4.8850 o          1 STB      -0.494800
     20 N3S          2.5250     1.5770     4.3470 nz         1 STB      -0.132500
     21 H2           1.9380     0.0000    -0.9380 ha         1 STB       0.142500
     22 H3           3.1660     0.0020     1.1970 ha         1 STB       0.128000
     23 H5          -0.5280    -0.0060     3.3420 ha         1 STB       0.128000
     24 H6          -1.7740    -0.0020     1.2180 ha         1 STB       0.142500
     25 HN          -2.5870     0.0360    -0.4080 hn         1 STB       0.174500
     26 H1'1        -2.5640    -0.8800    -3.1120 h1         1 STB       0.037700
     27 H1'2        -2.5640     0.8890    -3.1100 h1         1 STB       0.037700
     28 H2'1        -4.5890     0.8870    -1.6900 hc         1 STB       0.017200
     29 H2'2        -4.5890    -0.8820    -1.6910 hc         1 STB       0.017200
     30 H3'1        -4.8360    -0.8800    -4.1510 hc         1 STB       0.028200
     31 H3'2        -4.8360     0.8890    -4.1500 hc         1 STB       0.028200
     32 H4'1        -6.8610     0.8870    -2.7300 h1         1 STB       0.017200
     33 H4'2        -6.8600    -0.8820    -2.7310 h1         1 STB       0.017200
     34 HN5         -7.1170    -0.8260    -5.0830 hn         1 STB       0.256800
     35 H6'1        -8.9120    -0.5090    -3.2850 h2         1 STB       0.027700
     36 H6'2        -9.3220    -0.5070    -5.0060 h2         1 STB       0.027700
     37 HS7        -10.6470     1.7620    -4.3860 hs         1 STB       0.193800
     38 HN31         3.0570     2.0370     3.6350 hn         1 STB       0.314133
     39 HN32         3.0260     1.6120     5.2130 hn         1 STB       0.314133
     40 H3S3         1.6420     2.0370     4.4530 hn         1 STB       0.314133
@<TRIPOS>BOND
     1     1     2 ar  
     2     1     6 ar  
     3     1     7 1   
     4     2     3 ar  
     5     2    21 1   
     6     3     4 ar  
     7     3    22 1   
     8     4     5 ar  
     9     4    17 1   
    10     5     6 ar  
    11     5    23 1   
    12     6    24 1   
    13     7     8 2   
    14     7     9 1   
    15     9    10 1   
    16     9    25 1   
    17    10    11 1   
    18    10    26 1   
    19    10    27 1   
    20    11    12 1   
    21    11    28 1   
    22    11    29 1   
    23    12    13 1   
    24    12    30 1   
    25    12    31 1   
    26    13    14 1   
    27    13    32 1   
    28    13    33 1   
    29    14    15 1   
    30    14    34 1   
    31    15    16 1   
    32    15    35 1   
    33    15    36 1   
    34    16    37 1   
    35    17    18 2   
    36    17    19 2   
    37    17    20 1   
    38    20    38 1   
    39    20    39 1   
    40    20    40 1   
@<TRIPOS>SUBSTRUCTURE
     1 STB         1 TEMP              0 ****  ****    0 ROOT
