@<TRIPOS>MOLECULE
STC
   26    27     1     0     0
SMALL
bcc


@<TRIPOS>ATOM
      1 N1           0.0000     0.0000     0.0000 nu         1 STC      -0.343500
      2 C2           1.3970     0.0000     0.0000 ca         1 STC       0.126600
      3 C3           2.0930     0.0000     1.2020 ca         1 STC      -0.173500
      4 C4           2.0930    -0.0030    -1.2010 ca         1 STC      -0.173500
      5 C5           3.4740     0.0020     1.1990 ca         1 STC      -0.061500
      6 C6           3.4730     0.0030    -1.1980 ca         1 STC      -0.061500
      7 C7           4.1640     0.0020     0.0000 ca         1 STC      -0.083600
      8 Cl8          5.9000     0.0030     0.0010 cl         1 STC      -0.075400
      9 S13         -0.8280    -0.1350    -1.4270 sy         1 STC       1.046200
     10 C15         -0.4870     1.3110    -2.3720 cc         1 STC      -0.237500
     11 O16         -2.2040    -0.0570    -1.0840 o          1 STC      -0.585800
     12 O17         -0.2150    -1.2090    -2.1280 o          1 STC      -0.585800
     13 C18         -0.8800     2.5680    -1.9390 cd         1 STC       0.224300
     14 C19          0.1690     1.2410    -3.5750 cc         1 STC      -0.079000
     15 S20         -0.2870     3.6120    -3.2590 ss         1 STC      -0.270800
     16 C21         -1.5910     2.9420    -0.7160 c          1 STC       0.986200
     17 C22          0.4090     2.3870    -4.2670 cd         1 STC      -0.078100
     18 O23         -1.9870     4.2170    -0.5280 o          1 STC      -0.842300
     19 O24         -1.8260     2.1020     0.1320 o          1 STC      -0.842300
     20 HN11        -0.5000     0.0380     0.8660 hn         1 STC       0.364800
     21 H31          1.5540    -0.0380     2.1400 ha         1 STC       0.136000
     22 H41          1.5540    -0.0760    -2.1380 ha         1 STC       0.136000
     23 H51          4.0170     0.0030     2.1360 ha         1 STC       0.102500
     24 H61          4.0170     0.0060    -2.1350 ha         1 STC       0.102500
     25 H191         0.4970     0.2850    -3.9660 ha         1 STC       0.120000
     26 H221         0.9110     2.5050    -5.2200 h4         1 STC       0.149000
@<TRIPOS>BOND
     1     1     2 1   
     2     1     9 1   
     3     1    20 1   
     4     2     3 ar  
     5     2     4 ar  
     6     3     5 ar  
     7     3    21 1   
     8     4     6 ar  
     9     4    22 1   
    10     5     7 ar  
    11     5    23 1   
    12     6     7 ar  
    13     6    24 1   
    14     7     8 1   
    15     9    10 1   
    16     9    11 2   
    17     9    12 2   
    18    10    13 2   
    19    10    14 1   
    20    13    15 1   
    21    13    16 1   
    22    14    17 2   
    23    14    25 1   
    24    15    17 1   
    25    16    18 1   
    26    16    19 1   
    27    17    26 1   
@<TRIPOS>SUBSTRUCTURE
     1 STC         1 TEMP              0 ****  ****    0 ROOT
