@<TRIPOS>MOLECULE
molecule
   55    54     1     0     0
SMALL
bcc


@<TRIPOS>ATOM
      1 C1           0.0000     0.0000     0.0000 c          1 STE       0.891600
      2 O1           1.2080     0.0000     0.0000 o          1 STE      -0.858300
      3 O2          -0.6700     0.0000     1.1620 o          1 STE      -0.858300
      4 C2          -0.7520    -0.0030    -1.3060 c3         1 STE      -0.183400
      5 C3           0.2410    -0.0030    -2.4680 c3         1 STE      -0.063400
      6 C4          -0.5220    -0.0060    -3.7930 c3         1 STE      -0.088400
      7 C5           0.4720    -0.0060    -4.9560 c3         1 STE      -0.081400
      8 C6          -0.2920    -0.0080    -6.2810 c3         1 STE      -0.083400
      9 C7           0.7020    -0.0090    -7.4440 c3         1 STE      -0.082400
     10 C8          -0.0620    -0.0110    -8.7690 c3         1 STE      -0.082400
     11 C9           0.9320    -0.0120    -9.9310 c3         1 STE      -0.082400
     12 C10          0.1680    -0.0140   -11.2560 c3         1 STE      -0.082400
     13 C11          1.1610    -0.0140   -12.4190 c3         1 STE      -0.082400
     14 C12          0.3980    -0.0170   -13.7440 c3         1 STE      -0.082400
     15 C13          1.3920    -0.0170   -14.9060 c3         1 STE      -0.082400
     16 C14          0.6280    -0.0190   -16.2320 c3         1 STE      -0.082400
     17 C15          1.6220    -0.0200   -17.3940 c3         1 STE      -0.082400
     18 C16          0.8580    -0.0220   -18.7200 c3         1 STE      -0.081400
     19 C17          1.8520    -0.0230   -19.8820 c3         1 STE      -0.084400
     20 C18          1.0880    -0.0250   -21.2080 c3         1 STE      -0.092100
     21 H21         -1.3740    -0.8880    -1.3620 hc         1 STE       0.026700
     22 H22         -1.3760     0.8810    -1.3640 hc         1 STE       0.026700
     23 H31          0.8650    -0.8870    -2.4090 hc         1 STE       0.044700
     24 H32          0.8630     0.8820    -2.4120 hc         1 STE       0.044700
     25 H41         -1.1440    -0.8910    -3.8500 hc         1 STE       0.028700
     26 H42         -1.1460     0.8780    -3.8520 hc         1 STE       0.028700
     27 H51          1.0950    -0.8900    -4.8970 hc         1 STE       0.038700
     28 H52          1.0940     0.8790    -4.8990 hc         1 STE       0.038700
     29 H61         -0.9150    -0.8930    -6.3380 hc         1 STE       0.035700
     30 H62         -0.9160     0.8760    -6.3400 hc         1 STE       0.035700
     31 H71          1.3240     0.8770    -7.3870 hc         1 STE       0.039700
     32 H72          1.3260    -0.8920    -7.3850 hc         1 STE       0.039700
     33 H81         -0.6840    -0.8970    -8.8260 hc         1 STE       0.038700
     34 H82         -0.6860     0.8720    -8.8280 hc         1 STE       0.038700
     35 H91          1.5550    -0.8960    -9.8720 hc         1 STE       0.039700
     36 H92          1.5540     0.8730    -9.8740 hc         1 STE       0.039700
     37 H101        -0.4540    -0.8990   -11.3130 hc         1 STE       0.039700
     38 H102        -0.4560     0.8700   -11.3150 hc         1 STE       0.039700
     39 H111         1.7850    -0.8980   -12.3600 hc         1 STE       0.040700
     40 H112         1.7830     0.8710   -12.3620 hc         1 STE       0.040700
     41 H121        -0.2260     0.8670   -13.8030 hc         1 STE       0.040200
     42 H122        -0.2240    -0.9020   -13.8010 hc         1 STE       0.040200
     43 H131         2.0150    -0.9010   -14.8480 hc         1 STE       0.040700
     44 H132         2.0140     0.8670   -14.8500 hc         1 STE       0.040700
     45 H141         0.0050     0.8650   -16.2900 hc         1 STE       0.040700
     46 H142         0.0060    -0.9040   -16.2890 hc         1 STE       0.040700
     47 H151         2.2440     0.8660   -17.3380 hc         1 STE       0.040700
     48 H152         2.2460    -0.9030   -17.3360 hc         1 STE       0.040700
     49 H161         0.2340     0.8610   -18.7790 hc         1 STE       0.040700
     50 H162         0.2360    -0.9080   -18.7760 hc         1 STE       0.040700
     51 H171         2.4750    -0.9070   -19.8240 hc         1 STE       0.039700
     52 H172         2.4740     0.8620   -19.8260 hc         1 STE       0.039700
     53 H181         1.7930    -0.0250   -22.0300 hc         1 STE       0.031367
     54 H182         0.4660    -0.9100   -21.2650 hc         1 STE       0.031367
     55 H183         0.4650     0.8590   -21.2670 hc         1 STE       0.031367
@<TRIPOS>BOND
     1     1     2 1
     2     1     3 1
     3     1     4 1
     4     4     5 1
     5     4    21 1
     6     4    22 1
     7     5     6 1
     8     5    23 1
     9     5    24 1
    10     6     7 1
    11     6    25 1
    12     6    26 1
    13     7     8 1
    14     7    27 1
    15     7    28 1
    16     8     9 1
    17     8    29 1
    18     8    30 1
    19     9    10 1
    20     9    31 1
    21     9    32 1
    22    10    11 1
    23    10    33 1
    24    10    34 1
    25    11    12 1
    26    11    35 1
    27    11    36 1
    28    12    13 1
    29    12    37 1
    30    12    38 1
    31    13    14 1
    32    13    39 1
    33    13    40 1
    34    14    15 1
    35    14    41 1
    36    14    42 1
    37    15    16 1
    38    15    43 1
    39    15    44 1
    40    16    17 1
    41    16    45 1
    42    16    46 1
    43    17    18 1
    44    17    47 1
    45    17    48 1
    46    18    19 1
    47    18    49 1
    48    18    50 1
    49    19    20 1
    50    19    51 1
    51    19    52 1
    52    20    53 1
    53    20    54 1
    54    20    55 1
@<TRIPOS>SUBSTRUCTURE
     1 STE         1 TEMP              0 ****  ****    0 ROOT
