@<TRIPOS>MOLECULE
STE
   55    54     1     0     0
SMALL
bcc


@<TRIPOS>ATOM
      1 C1          0.0250    0.1280    0.0430 c         1 STE      0.907600
      2 O1          0.9340    1.0050    0.1270 o         1 STE     -0.853800
      3 O2         -0.3160   -0.6250    1.0000 o         1 STE     -0.853800
      4 C2         -0.7320   -0.0200   -1.2890 c3        1 STE     -0.193400
      5 C3          0.2190   -0.0450   -2.4610 c3        1 STE     -0.065400
      6 C4         -0.5150   -0.0060   -3.7850 c3        1 STE     -0.078400
      7 C5          0.4470   -0.0490   -4.9530 c3        1 STE     -0.078400
      8 C6         -0.2850   -0.0020   -6.2770 c3        1 STE     -0.078400
      9 C7          0.6790   -0.0450   -7.4440 c3        1 STE     -0.079400
     10 C8         -0.0540   -0.0000   -8.7680 c3        1 STE     -0.078400
     11 C9          0.9110   -0.0420   -9.9340 c3        1 STE     -0.079400
     12 C10         0.1780    0.0010  -11.2570 c3        1 STE     -0.078400
     13 C11         1.1430   -0.0410  -12.4220 c3        1 STE     -0.079400
     14 C12         0.4090    0.0010  -13.7460 c3        1 STE     -0.078400
     15 C13         1.3750   -0.0410  -14.9110 c3        1 STE     -0.079400
     16 C14         0.6410   -0.0010  -16.2350 c3        1 STE     -0.078400
     17 C15         1.6070   -0.0410  -17.4000 c3        1 STE     -0.079400
     18 C16         0.8730   -0.0020  -18.7240 c3        1 STE     -0.079400
     19 C17         1.8370   -0.0420  -19.8900 c3        1 STE     -0.080400
     20 C18         1.1120   -0.0030  -21.2100 c3        1 STE     -0.092100
     21 H21        -1.3450   -0.9550   -1.2650 hc        1 STE      0.018700
     22 H22        -1.4320    0.8480   -1.3830 hc        1 STE      0.018700
     23 H31         0.8500   -0.9710   -2.4100 hc        1 STE      0.043700
     24 H32         0.9140    0.8330   -2.3780 hc        1 STE      0.043700
     25 H41        -1.1330    0.9280   -3.8430 hc        1 STE      0.025700
     26 H42        -1.2220   -0.8740   -3.8500 hc        1 STE      0.025700
     27 H51         1.0630   -0.9850   -4.8970 hc        1 STE      0.036700
     28 H52         1.1570    0.8170   -4.8850 hc        1 STE      0.036700
     29 H61        -0.9010    0.9340   -6.3330 hc        1 STE      0.034200
     30 H62        -0.9950   -0.8680   -6.3450 hc        1 STE      0.034200
     31 H71         1.2950   -0.9810   -7.3870 hc        1 STE      0.037200
     32 H72         1.3880    0.8220   -7.3770 hc        1 STE      0.037200
     33 H81        -0.6710    0.9350   -8.8240 hc        1 STE      0.036700
     34 H82        -0.7630   -0.8670   -8.8350 hc        1 STE      0.036700
     35 H91         1.5290   -0.9770   -9.8760 hc        1 STE      0.038700
     36 H92         1.6180    0.8260   -9.8670 hc        1 STE      0.038700
     37 H101       -0.5300   -0.8680  -11.3230 hc        1 STE      0.038200
     38 H102       -0.4410    0.9350  -11.3140 hc        1 STE      0.038200
     39 H111        1.7620   -0.9750  -12.3650 hc        1 STE      0.038700
     40 H112        1.8490    0.8280  -12.3570 hc        1 STE      0.038700
     41 H121       -0.2970   -0.8690  -13.8120 hc        1 STE      0.038700
     42 H122       -0.2100    0.9340  -13.8040 hc        1 STE      0.038700
     43 H131        1.9950   -0.9740  -14.8530 hc        1 STE      0.038700
     44 H132        2.0800    0.8290  -14.8460 hc        1 STE      0.038700
     45 H141        0.0210    0.9330  -16.2930 hc        1 STE      0.038700
     46 H142       -0.0640   -0.8700  -16.3000 hc        1 STE      0.038700
     47 H151        2.2270   -0.9740  -17.3420 hc        1 STE      0.038700
     48 H152        2.3120    0.8290  -17.3350 hc        1 STE      0.038700
     49 H161        0.2520    0.9310  -18.7820 hc        1 STE      0.038700
     50 H162        0.1680   -0.8720  -18.7890 hc        1 STE      0.038700
     51 H171        2.4590   -0.9750  -19.8290 hc        1 STE      0.037700
     52 H172        2.5420    0.8280  -19.8220 hc        1 STE      0.037700
     53 H181        0.5060    0.9310  -21.3000 hc        1 STE      0.031033
     54 H182        1.8400   -0.0340  -22.0550 hc        1 STE      0.031033
     55 H183        0.4220   -0.8770  -21.3060 hc        1 STE      0.031033
@<TRIPOS>BOND
     1    1    2 1   
     2    1    3 1   
     3    1    4 1   
     4    4    5 1   
     5    4   21 1   
     6    4   22 1   
     7    5    6 1   
     8    5   23 1   
     9    5   24 1   
    10    6    7 1   
    11    6   25 1   
    12    6   26 1   
    13    7    8 1   
    14    7   27 1   
    15    7   28 1   
    16    8    9 1   
    17    8   29 1   
    18    8   30 1   
    19    9   10 1   
    20    9   31 1   
    21    9   32 1   
    22   10   11 1   
    23   10   33 1   
    24   10   34 1   
    25   11   12 1   
    26   11   35 1   
    27   11   36 1   
    28   12   13 1   
    29   12   37 1   
    30   12   38 1   
    31   13   14 1   
    32   13   39 1   
    33   13   40 1   
    34   14   15 1   
    35   14   41 1   
    36   14   42 1   
    37   15   16 1   
    38   15   43 1   
    39   15   44 1   
    40   16   17 1   
    41   16   45 1   
    42   16   46 1   
    43   17   18 1   
    44   17   47 1   
    45   17   48 1   
    46   18   19 1   
    47   18   49 1   
    48   18   50 1   
    49   19   20 1   
    50   19   51 1   
    51   19   52 1   
    52   20   53 1   
    53   20   54 1   
    54   20   55 1   
@<TRIPOS>SUBSTRUCTURE
     1 STE         1 TEMP              0 ****  ****    0 ROOT
