@<TRIPOS>MOLECULE
STF
   26    27     1     0     0
SMALL
bcc


@<TRIPOS>ATOM
      1 C8           0.0000     0.0000     0.0000 c3         1 STF      -0.041600
      2 S12          1.8380     0.0000     0.0000 ss         1 STF      -0.367300
      3 C11          2.0620     0.0000     1.7740 c2         1 STF       0.598100
      4 N10          0.8230    -0.0010     2.2470 ne         1 STF      -0.536100
      5 C9          -0.2500    -0.0020     1.5030 c          1 STF       0.683500
      6 O17         -1.3700    -0.0020     1.9770 o          1 STF      -0.491100
      7 S18          3.5740    -0.0010     2.6800 sh         1 STF      -0.242000
      8 C7          -0.5580     1.2640    -0.6580 c3         1 STF       0.061900
      9 C1          -0.3040     1.2100    -2.1420 ca         1 STF      -0.079300
     10 C6          -1.2380     0.6380    -2.9840 ca         1 STF      -0.097000
     11 C5          -1.0050     0.5890    -4.3460 ca         1 STF      -0.039500
     12 C4           0.1630     1.1160    -4.8650 ca         1 STF      -0.207300
     13 C3           1.1000     1.6840    -4.0240 ca         1 STF      -0.039500
     14 C2           0.8650     1.7350    -2.6620 ca         1 STF      -0.097000
     15 C13          0.4180     1.0640    -6.3500 c3         1 STF       0.640200
     16 F16         -0.2120    -0.0620    -6.8920 f          1 STF      -0.207633
     17 F15          1.7950     0.9870    -6.5850 f          1 STF      -0.207633
     18 F14         -0.0940     2.2190    -6.9520 f          1 STF      -0.207633
     19 H7          -0.3900    -0.8990    -0.4610 h1         1 STF       0.096700
     20 H19          4.1730    -1.1770     2.5410 hs         1 STF       0.214800
     21 H6          -1.6240     1.3250    -0.4770 hc         1 STF       0.041700
     22 H5          -0.0700     2.1350    -0.2390 hc         1 STF       0.041700
     23 H4          -2.1530     0.2250    -2.5760 ha         1 STF       0.120500
     24 H3          -1.7380     0.1420    -5.0060 ha         1 STF       0.120000
     25 H2           2.0160     2.0960    -4.4310 ha         1 STF       0.120000
     26 H1           1.6000     2.1800    -2.0020 ha         1 STF       0.120500
@<TRIPOS>BOND
     1     1     2 1   
     2     1     5 1   
     3     1     8 1   
     4     1    19 1   
     5     2     3 1   
     6     3     4 2   
     7     3     7 1   
     8     4     5 1   
     9     5     6 2   
    10     7    20 1   
    11     8     9 1   
    12     8    21 1   
    13     8    22 1   
    14     9    10 ar  
    15     9    14 ar  
    16    10    11 ar  
    17    10    23 1   
    18    11    12 ar  
    19    11    24 1   
    20    12    13 ar  
    21    12    15 1   
    22    13    14 ar  
    23    13    25 1   
    24    14    26 1   
    25    15    16 1   
    26    15    17 1   
    27    15    18 1   
@<TRIPOS>SUBSTRUCTURE
     1 STF         1 TEMP              0 ****  ****    0 ROOT
