@<TRIPOS>MOLECULE
STH
   22    23     1     0     0
SMALL
bcc


@<TRIPOS>ATOM
      1 C8           0.0000     0.0000     0.0000 c3         1 STH       0.412500
      2 O8          -0.4770     1.3090    -0.3170 oh         1 STH      -0.558800
      3 C1           1.5130     0.0000     0.0000 ca         1 STH      -0.171300
      4 C2           2.2910     0.0000     1.1340 ca         1 STH       0.115100
      5 C3           3.6870     0.0610     0.9860 ca         1 STH      -0.112000
      6 C4           4.2730     0.1030    -0.2550 ca         1 STH      -0.035000
      7 C5           3.4820     0.0810    -1.3900 ca         1 STH      -0.084000
      8 C6           2.1120     0.0290    -1.2560 ca         1 STH      -0.034000
      9 C7           0.5900     0.4830     2.6270 c3         1 STH       0.204400
     10 O2           1.8800    -0.0600     2.4180 os         1 STH      -0.269900
     11 N7           0.2410     0.3990     4.0510 nz         1 STH       0.098400
     12 S7          -0.6000    -0.4820     1.6440 ss         1 STH      -0.368200
     13 H8          -0.3590    -0.7090    -0.7360 h2         1 STH       0.075700
     14 HO8         -1.3490     1.2490    -0.6710 ho         1 STH       0.422000
     15 H3           4.3140     0.0790     1.8690 ha         1 STH       0.124000
     16 H4           5.3510     0.1430    -0.3460 ha         1 STH       0.124000
     17 H5           3.9350     0.1130    -2.3730 ha         1 STH       0.127000
     18 H6           1.4900     0.0120    -2.1430 ha         1 STH       0.120000
     19 H7           0.5750     1.5170     2.3020 hx         1 STH       0.104700
     20 HN71        -0.5830    -0.1580     4.1610 hn         1 STH       0.235133
     21 HN72         0.9970    -0.0210     4.5550 hn         1 STH       0.235133
     22 H73          0.0720     1.3180     4.4080 hn         1 STH       0.235133
@<TRIPOS>BOND
     1     1     2 1   
     2     1     3 1   
     3     1    12 1   
     4     1    13 1   
     5     2    14 1   
     6     3     4 ar  
     7     3     8 ar  
     8     4     5 ar  
     9     4    10 1   
    10     5     6 ar  
    11     5    15 1   
    12     6     7 ar  
    13     6    16 1   
    14     7     8 ar  
    15     7    17 1   
    16     8    18 1   
    17     9    10 1   
    18     9    11 1   
    19     9    12 1   
    20     9    19 1   
    21    11    20 1   
    22    11    21 1   
    23    11    22 1   
@<TRIPOS>SUBSTRUCTURE
     1 STH         1 TEMP              0 ****  ****    0 ROOT
