@<TRIPOS>MOLECULE
molecule
   68    72     1     0     0
SMALL
bcc


@<TRIPOS>ATOM
      1 C1           0.0000     0.0000     0.0000 ca         1 STI      -0.261300
      2 C6           1.3840     0.0000     0.0000 ca         1 STI      -0.052000
      3 C5           2.0470     0.0000     1.2310 cp         1 STI      -0.278800
      4 C4           1.2940    -0.0050     2.4020 ca         1 STI       0.441200
      5 N3          -0.0230    -0.0000     2.3520 nb         1 STI      -0.692000
      6 C2          -0.6770    -0.0010     1.2060 ca         1 STI       0.430200
      7 C7           3.5300     0.0010     1.2870 cp         1 STI       0.560800
      8 C12          4.2030     0.7700     2.2400 ca         1 STI      -0.428600
      9 C11          5.5860     0.7380     2.2560 ca         1 STI       0.496200
     10 N10          6.2260    -0.0140     1.3750 nb         1 STI      -0.783000
     11 C9           5.5620    -0.7340     0.4830 ca         1 STI       0.939900
     12 N8           4.2390    -0.7270     0.4290 nb         1 STI      -0.792000
     13 N13          6.2690    -1.5070    -0.4220 nu         1 STI      -0.750300
     14 C14          7.6580    -1.6250    -0.3040 ca         1 STI       0.173600
     15 C19          8.4420    -1.7760    -1.4410 ca         1 STI      -0.130300
     16 C18          9.8140    -1.8940    -1.3260 ca         1 STI      -0.095000
     17 C17         10.4100    -1.8620    -0.0800 ca         1 STI      -0.139000
     18 C16          9.6320    -1.7120     1.0610 ca         1 STI       0.066600
     19 C15          8.2540    -1.5980     0.9500 ca         1 STI      -0.156000
     20 N21         10.2360    -1.6800     2.3220 ns         1 STI      -0.474100
     21 C22         11.4250    -1.0680     2.4830 c          1 STI       0.675700
     22 C23         12.1090    -1.1150     3.7920 ca         1 STI      -0.149600
     23 C25         13.3420    -0.4820     3.9630 ca         1 STI      -0.086000
     24 C26         13.9740    -0.5310     5.1890 ca         1 STI      -0.128500
     25 C27         13.3900    -1.2040     6.2460 ca         1 STI      -0.056300
     26 C28         12.1720    -1.8390     6.0820 ca         1 STI      -0.128500
     27 C29         11.5260    -1.7930     4.8640 ca         1 STI      -0.086000
     28 C46         14.0870    -1.2520     7.5810 c3         1 STI       0.178100
     29 N48         13.6640    -0.1060     8.3960 n3         1 STI      -0.668600
     30 C53         14.3750    -0.2110     9.6750 c3         1 STI       0.132300
     31 C52         13.8910     0.8840    10.6250 c3         1 STI       0.136300
     32 N51         12.4640     0.6930    10.9130 n3         1 STI      -0.678600
     33 C54         12.0410     1.8390    11.7290 c3         1 STI       0.125100
     34 C50         11.7530     0.7990     9.6340 c3         1 STI       0.136300
     35 C49         12.2380    -0.2970     8.6840 c3         1 STI       0.132300
     36 O29         11.9350    -0.4760     1.5520 o          1 STI      -0.592100
     37 C20          7.7950    -1.8110    -2.8010 c3         1 STI      -0.044800
     38 H11         -0.5470    -0.0000    -0.9350 ha         1 STI       0.142000
     39 H61          1.9400     0.0020    -0.9300 ha         1 STI       0.154000
     40 H41          1.7950    -0.0050     3.3620 h4         1 STI       0.027100
     41 H21         -1.7600     0.0010     1.2100 h4         1 STI       0.025100
     42 H121         3.6540     1.3770     2.9500 ha         1 STI       0.149000
     43 H111         6.1390     1.3230     2.9810 h4         1 STI       0.032100
     44 H131         5.7820    -2.0180    -1.1310 hn         1 STI       0.468800
     45 H181        10.4230    -2.0110    -2.2140 ha         1 STI       0.137000
     46 H171        11.4860    -1.9520     0.0080 ha         1 STI       0.156000
     47 H151         7.6450    -1.4820     1.8380 ha         1 STI       0.157000
     48 H211         9.7990    -2.1370     3.0970 hn         1 STI       0.324500
     49 H251        13.8010     0.0450     3.1360 ha         1 STI       0.141500
     50 H261        14.9290    -0.0380     5.3240 ha         1 STI       0.138500
     51 H281        11.7200    -2.3640     6.9150 ha         1 STI       0.138500
     52 H291        10.5720    -2.2910     4.7370 ha         1 STI       0.141500
     53 H461        15.1590    -1.2110     7.4300 h1         1 STI       0.046700
     54 H462        13.8290    -2.1720     8.0900 h1         1 STI       0.046700
     55 H531        15.4390    -0.0940     9.5050 h1         1 STI       0.046450
     56 H532        14.1800    -1.1810    10.1160 h1         1 STI       0.046450
     57 H521        14.0380     1.8520    10.1610 h1         1 STI       0.045700
     58 H522        14.4540     0.8320    11.5490 h1         1 STI       0.045700
     59 H541        12.2520     2.7590    11.1960 h1         1 STI       0.035367
     60 H542        10.9780     1.7700    11.9240 h1         1 STI       0.035367
     61 H543        12.5820     1.8330    12.6670 h1         1 STI       0.035367
     62 H501        11.9500     1.7690     9.1930 h1         1 STI       0.045700
     63 H502        10.6900     0.6830     9.8040 h1         1 STI       0.045700
     64 H491        12.0910    -1.2650     9.1480 h1         1 STI       0.046450
     65 H492        11.6750    -0.2450     7.7600 h1         1 STI       0.046450
     66 H201         7.1600    -2.6850    -2.8770 hc         1 STI       0.042033
     67 H202         8.5630    -1.8550    -3.5650 hc         1 STI       0.042033
     68 H203         7.1990    -0.9180    -2.9410 hc         1 STI       0.042033
@<TRIPOS>BOND
     1     1     2 ar
     2     1     6 ar
     3     1    38 1
     4     2     3 ar
     5     2    39 1
     6     3     4 ar
     7     3     7 1
     8     4     5 ar
     9     4    40 1
    10     5     6 ar
    11     6    41 1
    12     7     8 ar
    13     7    12 ar
    14     8     9 ar
    15     8    42 1
    16     9    10 ar
    17     9    43 1
    18    10    11 ar
    19    11    12 ar
    20    11    13 1
    21    13    14 1
    22    13    44 1
    23    14    15 ar
    24    14    19 ar
    25    15    16 ar
    26    15    37 1
    27    16    17 ar
    28    16    45 1
    29    17    18 ar
    30    17    46 1
    31    18    19 ar
    32    18    20 1
    33    19    47 1
    34    20    21 1
    35    20    48 1
    36    21    22 1
    37    21    36 2
    38    22    23 ar
    39    22    27 ar
    40    23    24 ar
    41    23    49 1
    42    24    25 ar
    43    24    50 1
    44    25    26 ar
    45    25    28 1
    46    26    27 ar
    47    26    51 1
    48    27    52 1
    49    28    29 1
    50    28    53 1
    51    28    54 1
    52    29    30 1
    53    29    35 1
    54    30    31 1
    55    30    55 1
    56    30    56 1
    57    31    32 1
    58    31    57 1
    59    31    58 1
    60    32    33 1
    61    32    34 1
    62    33    59 1
    63    33    60 1
    64    33    61 1
    65    34    35 1
    66    34    62 1
    67    34    63 1
    68    35    64 1
    69    35    65 1
    70    37    66 1
    71    37    67 1
    72    37    68 1
@<TRIPOS>SUBSTRUCTURE
     1 STI         1 TEMP              0 ****  ****    0 ROOT
