@<TRIPOS>MOLECULE
molecule
   41    43     1     0     0
SMALL
bcc


@<TRIPOS>ATOM
      1 F1           0.0000     0.0000     0.0000 f          1 STJ      -0.202300
      2 C2           1.3990     0.0000     0.0000 c3         1 STJ       0.795700
      3 F3           1.8660     0.0000     1.3190 f          1 STJ      -0.202300
      4 F4           1.8650    -1.1430    -0.6590 f          1 STJ      -0.202300
      5 O5           1.8760     1.1650    -0.6740 os         1 STJ      -0.337900
      6 C6           1.5110     2.3700    -0.1590 ca         1 STJ       0.121100
      7 C7           1.9400     3.5420    -0.7640 ca         1 STJ      -0.149000
      8 C9           1.5690     4.7650    -0.2400 ca         1 STJ      -0.105500
      9 C11          0.7680     4.8220     0.8920 ca         1 STJ       0.113600
     10 C12          0.3390     3.6480     1.4970 ca         1 STJ      -0.105500
     11 C14          0.7070     2.4250     0.9700 ca         1 STJ      -0.149000
     12 N16          0.3920     6.0610     1.4240 nu         1 STJ      -0.752300
     13 C18          0.1930     7.1450     0.5810 ca         1 STJ       0.737200
     14 N19          0.2370     6.9910    -0.7390 nb         1 STJ      -0.780000
     15 C20          0.0480     8.0140    -1.5470 ca         1 STJ       0.739900
     16 N22         -0.1910     9.2270    -1.0920 nb         1 STJ      -0.789000
     17 C23         -0.2520     9.4670     0.2190 cp         1 STJ       0.521800
     18 C24         -0.0640     8.4110     1.1070 ca         1 STJ      -0.425600
     19 C26         -0.5210    10.8360     0.7220 cp         1 STJ      -0.127500
     20 C27         -0.7120    11.8820    -0.1750 ca         1 STJ       0.011000
     21 C29         -0.9650    13.1660     0.3060 ca         1 STJ      -0.221600
     22 C30         -1.0240    13.3930     1.6820 ca         1 STJ      -0.111000
     23 C32         -0.8330    12.3490     2.5660 ca         1 STJ      -0.113000
     24 C34         -0.5880    11.0740     2.0950 ca         1 STJ      -0.042000
     25 C36         -1.1690    14.2840    -0.6390 c          1 STJ       0.506700
     26 O37         -1.1170    14.0850    -1.8380 o          1 STJ      -0.413100
     27 N38         -1.4140    15.5250    -0.1740 nz         1 STJ      -0.678400
     28 H7           2.5650     3.4980    -1.6470 ha         1 STJ       0.157500
     29 H9           1.9040     5.6800    -0.7130 ha         1 STJ       0.150000
     30 H12         -0.2880     3.6900     2.3800 ha         1 STJ       0.150000
     31 H14          0.3720     1.5090     1.4420 ha         1 STJ       0.157500
     32 HN16         0.2960     6.1720     2.4140 hn         1 STJ       0.461800
     33 H20          0.0910     7.8540    -2.6170 h5         1 STJ       0.074100
     34 H24         -0.1070     8.5710     2.1770 ha         1 STJ       0.143000
     35 H27         -0.6650    11.6990    -1.2410 ha         1 STJ       0.195000
     36 H30         -1.2190    14.3900     2.0580 ha         1 STJ       0.109000
     37 H32         -0.8820    12.5300     3.6330 ha         1 STJ       0.163000
     38 H34         -0.4390    10.2590     2.7930 ha         1 STJ       0.165000
     39 HN38        -0.6460    15.8260     0.3930 hn         1 STJ       0.477467
     40 HN3A        -1.5260    16.1540    -0.9440 hn         1 STJ       0.477467
     41 H383        -2.2500    15.5160     0.3750 hn         1 STJ       0.477467
@<TRIPOS>BOND
     1     1     2 1
     2     2     3 1
     3     2     4 1
     4     2     5 1
     5     5     6 1
     6     6     7 ar
     7     6    11 ar
     8     7     8 ar
     9     8     9 ar
    10     9    10 ar
    11     9    12 1
    12    10    11 ar
    13    12    13 1
    14    13    14 ar
    15    13    18 ar
    16    14    15 ar
    17    15    16 ar
    18    16    17 ar
    19    17    18 ar
    20    17    19 1
    21    19    20 ar
    22    19    24 ar
    23    20    21 ar
    24    21    22 ar
    25    21    25 1
    26    22    23 ar
    27    23    24 ar
    28    25    26 2
    29    25    27 1
    30     7    28 1
    31     8    29 1
    32    10    30 1
    33    11    31 1
    34    12    32 1
    35    15    33 1
    36    18    34 1
    37    20    35 1
    38    22    36 1
    39    23    37 1
    40    24    38 1
    41    27    39 1
    42    27    40 1
    43    41    27 1
@<TRIPOS>SUBSTRUCTURE
     1 STJ         1 TEMP              0 ****  ****    0 ROOT
