@<TRIPOS>MOLECULE
molecule
   29    30     1     0     0
SMALL
bcc


@<TRIPOS>ATOM
      1 C1           0.0000     0.0000     0.0000 ca         1 STL       0.120600
      2 C2           1.3870     0.0000     0.0000 ca         1 STL      -0.183000
      3 C3           2.0860     0.0000     1.1980 ca         1 STL       0.120600
      4 C4           1.4000     0.0010     2.4020 ca         1 STL      -0.153500
      5 C5           0.0030     0.0010     2.4070 ca         1 STL      -0.029800
      6 C6          -0.6940    -0.0050     1.1980 ca         1 STL      -0.153500
      7 C7          -0.7320     0.0020     3.6840 ce         1 STL      -0.115200
      8 C8          -2.0730     0.0030     3.6860 cf         1 STL      -0.099200
      9 C9          -2.8070     0.0040     4.9640 ca         1 STL      -0.069800
     10 C10         -4.2050     0.0040     4.9700 ca         1 STL      -0.104500
     11 C11         -4.8880     0.0050     6.1670 ca         1 STL      -0.151500
     12 C12         -4.1890     0.0040     7.3670 ca         1 STL       0.108100
     13 C13         -2.8000     0.0090     7.3660 ca         1 STL      -0.151500
     14 C14         -2.1090     0.0030     6.1740 ca         1 STL      -0.104500
     15 O1          -4.8670     0.0040     8.5440 oh         1 STL      -0.522100
     16 O2           3.4450    -0.0010     1.1920 oh         1 STL      -0.521100
     17 O3          -0.6780     0.0000    -1.1780 oh         1 STL      -0.521100
     18 H2           1.9270     0.0020    -0.9390 ha         1 STL       0.150000
     19 H4           1.9460     0.0030     3.3370 ha         1 STL       0.144500
     20 H6          -1.7780    -0.0050     1.1960 ha         1 STL       0.144500
     21 H7          -0.1880     0.0020     4.6210 ha         1 STL       0.137000
     22 H8          -2.6170     0.0030     2.7490 ha         1 STL       0.136000
     23 H10         -4.7510     0.0050     4.0340 ha         1 STL       0.136000
     24 H11         -5.9710     0.0030     6.1720 ha         1 STL       0.141500
     25 H13         -2.2590     0.0080     8.3050 ha         1 STL       0.141500
     26 H14         -1.0250     0.0070     6.1750 ha         1 STL       0.136000
     27 HO1         -5.0210    -0.8850     8.8180 ho         1 STL       0.420000
     28 HO2          3.7590    -0.8900     1.1920 ho         1 STL       0.422000
     29 HO3         -0.7720     0.8860    -1.4860 ho         1 STL       0.422000
@<TRIPOS>BOND
     1     1     2 ar
     2     1     6 ar
     3     1    17 1
     4     2     3 ar
     5     2    18 1
     6     3     4 ar
     7     3    16 1
     8     4     5 ar
     9     4    19 1
    10     5     6 ar
    11     5     7 1
    12     6    20 1
    13     7     8 2
    14     7    21 1
    15     8     9 1
    16     8    22 1
    17     9    10 ar
    18     9    14 ar
    19    10    11 ar
    20    10    23 1
    21    11    12 ar
    22    11    24 1
    23    12    13 ar
    24    12    15 1
    25    13    14 ar
    26    13    25 1
    27    14    26 1
    28    15    27 1
    29    16    28 1
    30    17    29 1
@<TRIPOS>SUBSTRUCTURE
     1 STL         1 TEMP              0 ****  ****    0 ROOT
