@<TRIPOS>MOLECULE
STL
   29    30     1     0     0
SMALL
bcc


@<TRIPOS>ATOM
      1 C1          0.1120    0.0250   -0.0440 ca        1 STL      0.159600
      2 C2          1.5090   -0.0870   -0.0100 ca        1 STL     -0.244000
      3 C3          2.1330   -0.1140    1.2420 ca        1 STL      0.159600
      4 C4          1.3960   -0.0350    2.4340 ca        1 STL     -0.212500
      5 C5          0.0000    0.0680    2.3760 ca        1 STL      0.018200
      6 C6         -0.6450    0.1020    1.1320 ca        1 STL     -0.212500
      7 C7         -0.7440    0.1500    3.6230 ce        1 STL     -0.120200
      8 C8         -2.0350   -0.1950    3.7620 cf        1 STL     -0.085200
      9 C9         -2.7870   -0.1220    5.0020 ca        1 STL     -0.096800
     10 C10        -4.1930   -0.1560    4.9460 ca        1 STL     -0.079500
     11 C11        -4.9580   -0.0880    6.1020 ca        1 STL     -0.186500
     12 C12        -4.3100    0.0090    7.3460 ca        1 STL      0.131100
     13 C13        -2.9110    0.0360    7.4230 ca        1 STL     -0.186500
     14 C14        -2.1610   -0.0300    6.2520 ca        1 STL     -0.079500
     15 O1         -5.1190    0.0730    8.4560 oh        1 STL     -0.495100
     16 O2          3.4980   -0.2190    1.3770 oh        1 STL     -0.496600
     17 O3         -0.4630    0.0540   -1.2940 oh        1 STL     -0.496600
     18 H2          2.0820   -0.1470   -0.9440 ha        1 STL      0.153000
     19 H4          1.9230   -0.0580    3.3980 ha        1 STL      0.144000
     20 H6         -1.7380    0.2000    1.0750 ha        1 STL      0.144000
     21 H7         -0.1590    0.5180    4.4850 ha        1 STL      0.131000
     22 H8         -2.6100   -0.5650    2.8940 ha        1 STL      0.126000
     23 H10        -4.6950   -0.2350    3.9700 ha        1 STL      0.135500
     24 H11        -6.0560   -0.1100    6.0630 ha        1 STL      0.143500
     25 H13        -2.4110    0.1070    8.3990 ha        1 STL      0.143500
     26 H14        -1.0630   -0.0170    6.3190 ha        1 STL      0.135500
     27 HO1        -4.5500    0.1360    9.2370 ho        1 STL      0.421000
     28 HO2         3.8840   -0.2660    0.4900 ho        1 STL      0.421500
     29 HO3        -1.4210    0.1410   -1.1800 ho        1 STL      0.421500
@<TRIPOS>BOND
     1    1    2 ar  
     2    1    6 ar  
     3    1   17 1   
     4    2    3 ar  
     5    2   18 1   
     6    3    4 ar  
     7    3   16 1   
     8    4    5 ar  
     9    4   19 1   
    10    5    6 ar  
    11    5    7 1   
    12    6   20 1   
    13    7    8 2   
    14    7   21 1   
    15    8    9 1   
    16    8   22 1   
    17    9   10 ar  
    18    9   14 ar  
    19   10   11 ar  
    20   10   23 1   
    21   11   12 ar  
    22   11   24 1   
    23   12   13 ar  
    24   12   15 1   
    25   13   14 ar  
    26   13   25 1   
    27   14   26 1   
    28   15   27 1   
    29   16   28 1   
    30   17   29 1   
@<TRIPOS>SUBSTRUCTURE
     1 STL         1 TEMP              0 ****  ****    0 ROOT
