@<TRIPOS>MOLECULE
STM
   59    62     1     0     0
SMALL
bcc


@<TRIPOS>ATOM
      1 O            0.0000     0.0000     0.0000 o          1 STM      -0.580000
      2 C6           1.2140     0.0000     0.0000 c          1 STM       0.612600
      3 O1           1.8870     0.0000     1.1660 os         1 STM      -0.398900
      4 C7           1.0970     0.0000     2.3850 c3         1 STM       0.265700
      5 C5           1.9530    -0.0070    -1.2800 ca         1 STM       0.305800
      6 N            3.2770     0.0840    -1.2710 nb         1 STM      -0.497000
      7 C1           1.2500    -0.1140    -2.4800 ca         1 STM      -0.072600
      8 C           -0.2540    -0.2220    -2.4740 c3         1 STM       0.036200
      9 C2           1.9520    -0.1200    -3.6830 cp         1 STM      -0.025000
     10 C18          1.2400    -0.2330    -4.9790 cp         1 STM      -0.049000
     11 C19          0.8190     0.9160    -5.6470 ca         1 STM      -0.098000
     12 C20          0.1560     0.8090    -6.8530 ca         1 STM      -0.085000
     13 C21         -0.0920    -0.4360    -7.4040 ca         1 STM      -0.166000
     14 C22          0.3220    -1.5840    -6.7490 ca         1 STM       0.076100
     15 O6           0.0750    -2.8050    -7.2960 os         1 STM      -0.315900
     16 C24         -0.6150    -2.8280    -8.5470 c3         1 STM       0.250700
     17 C23          0.9950    -1.4900    -5.5380 ca         1 STM       0.127100
     18 O5           1.4040    -2.6140    -4.8930 oh         1 STM      -0.480100
     19 C3           3.3530    -0.0170    -3.6360 ca         1 STM       0.024300
     20 N3           4.0980    -0.0180    -4.8040 nv         1 STM      -0.547200
     21 C4           3.9860     0.0830    -2.3880 cp         1 STM       0.219300
     22 C8           5.4620     0.1870    -2.3200 cp         1 STM       0.401300
     23 C9           6.0540     0.8310    -1.2330 ca         1 STM      -0.153300
     24 C10          7.4360     0.9280    -1.1730 ca         1 STM      -0.016000
     25 N1           6.1990    -0.3370    -3.2900 nb         1 STM      -0.484000
     26 C12          7.5180    -0.2690    -3.2720 ca         1 STM       0.329800
     27 C11          8.1820     0.3700    -2.2110 ca         1 STM      -0.280900
     28 C13          8.3190    -0.8660    -4.3720 c          1 STM       0.551800
     29 O2           7.7640    -1.4220    -5.2980 o          1 STM      -0.501100
     30 C14          9.7910    -0.7800    -4.3360 cc         1 STM      -0.501200
     31 N2          10.5370    -1.3390    -5.3640 nz         1 STM       0.315600
     32 C15         10.4250    -0.1610    -3.3080 cd         1 STM       0.256900
     33 C16          9.6590     0.4400    -2.2050 c          1 STM       0.582900
     34 O3          10.2390     0.9870    -1.2880 o          1 STM      -0.457100
     35 O4          11.7800    -0.0940    -3.2980 os         1 STM      -0.350900
     36 C17         12.3680     1.1990    -3.4530 c3         1 STM       0.274700
     37 H1           0.3920    -0.8220     2.3580 h1         1 STM       0.004367
     38 H2           1.7510    -0.1130     3.2400 h1         1 STM       0.004367
     39 H3           0.5570     0.9360     2.4640 h1         1 STM       0.004367
     40 H4          -0.6110    -0.3480    -3.4890 hc         1 STM       0.034033
     41 H5          -0.6800     0.6800    -2.0510 hc         1 STM       0.034033
     42 H6          -0.5520    -1.0760    -1.8780 hc         1 STM       0.034033
     43 H7           1.0180     1.8930    -5.2240 ha         1 STM       0.111000
     44 H8          -0.1720     1.7030    -7.3700 ha         1 STM       0.110000
     45 H9          -0.6140    -0.5120    -8.3500 ha         1 STM       0.126000
     46 H10         -0.7590    -3.8550    -8.8610 h1         1 STM       0.001700
     47 H11         -0.0310    -2.3010    -9.2920 h1         1 STM       0.001700
     48 H12         -1.5790    -2.3460    -8.4370 h1         1 STM       0.001700
     49 H13          0.7590    -3.2930    -5.0070 ho         1 STM       0.416000
     50 H14          4.3450     0.8480    -5.2410 hn         1 STM       0.286800
     51 H15          4.3640    -0.8850    -5.2270 hn         1 STM       0.286800
     52 H16          5.6310     1.3870    -0.4050 ha         1 STM       0.148000
     53 H17          7.8160     1.4210    -0.2870 ha         1 STM       0.141000
     54 H18         11.4840    -1.0220    -5.3010 hn         1 STM       0.210133
     55 H19         10.1510    -1.0620    -6.2450 hn         1 STM       0.210133
     56 H20         11.6190     1.8950    -3.8110 h1         1 STM       0.019367
     57 H21         12.7510     1.5390    -2.4990 h1         1 STM       0.019367
     58 H22         13.1800     1.1430    -4.1690 h1         1 STM       0.019367
     59 H23         10.5160    -2.3360    -5.2870 hn         1 STM       0.210133
@<TRIPOS>BOND
     1     1     2 2   
     2     2     3 1   
     3     2     5 1   
     4     3     4 1   
     5     4    37 1   
     6     4    38 1   
     7     4    39 1   
     8     5     6 ar  
     9     5     7 ar  
    10     6    21 ar  
    11     7     8 1   
    12     7     9 ar  
    13     8    40 1   
    14     8    41 1   
    15     8    42 1   
    16     9    10 1   
    17     9    19 ar  
    18    10    11 ar  
    19    10    17 ar  
    20    11    12 ar  
    21    11    43 1   
    22    12    13 ar  
    23    12    44 1   
    24    13    14 ar  
    25    13    45 1   
    26    14    15 1   
    27    14    17 ar  
    28    15    16 1   
    29    16    46 1   
    30    16    47 1   
    31    16    48 1   
    32    17    18 1   
    33    18    49 1   
    34    19    20 1   
    35    19    21 ar  
    36    20    50 1   
    37    20    51 1   
    38    21    22 1   
    39    22    23 ar  
    40    22    25 ar  
    41    23    24 ar  
    42    23    52 1   
    43    24    27 ar  
    44    24    53 1   
    45    25    26 ar  
    46    26    27 ar  
    47    26    28 1   
    48    27    33 1   
    49    28    29 2   
    50    28    30 1   
    51    30    31 1   
    52    30    32 2   
    53    31    54 1   
    54    31    55 1   
    55    31    59 1   
    56    32    33 1   
    57    32    35 1   
    58    33    34 2   
    59    35    36 1   
    60    36    56 1   
    61    36    57 1   
    62    36    58 1   
@<TRIPOS>SUBSTRUCTURE
     1 STM         1 TEMP              0 ****  ****    0 ROOT
