@<TRIPOS>MOLECULE
STN
   27    26     1     0     0
SMALL
bcc


@<TRIPOS>ATOM
      1 CD1          0.0000     0.0000     0.0000 c3         1 STN       0.004400
      2 CG           1.5300     0.0000     0.0000 c3         1 STN      -0.071700
      3 CN           3.9570    -1.5070     0.8960 c3         1 STN       0.066000
      4 CA           3.5650    -0.1340     1.4430 c3         1 STN      -0.189700
      5 CB           2.0410     0.0000     1.4410 c3         1 STN      -0.005400
      6 CD2          2.0400     1.2480    -0.7220 c3         1 STN       0.004400
      7 C            4.0790     0.0100     2.8520 c          1 STN       0.968600
      8 CM           6.0470    -2.1360     1.9780 c          1 STN       0.649900
      9 ON           6.1630    -1.2330    -0.2350 oh         1 STN      -0.439100
     10 OM           7.2550    -2.2410     1.9790 o          1 STN      -0.681100
     11 O            3.4390    -0.4290     3.7770 o          1 STN      -0.887300
     12 OXT          5.2490     0.6270     3.0800 o          1 STN      -0.887300
     13 HD11        -0.3610    -0.8610     0.5490 hc         1 STN      -0.002467
     14 HD12        -0.3610     0.9060     0.4710 hc         1 STN      -0.002467
     15 HD13        -0.3610    -0.0450    -1.0200 hc         1 STN      -0.002467
     16 HG           1.8910    -0.8850    -0.5100 hc         1 STN       0.019700
     17 HCN1         3.5260    -2.2810     1.5190 h1         1 STN       0.011700
     18 HCN2         3.5860    -1.6100    -0.1170 h1         1 STN       0.011700
     19 HA           3.9960     0.6400     0.8210 hc         1 STN       0.047700
     20 HCB1         1.7590     0.9280     1.9240 hc         1 STN       0.024200
     21 HCB2         1.6040    -0.8330     1.9790 hc         1 STN       0.024200
     22 HD21         2.1170     2.0670    -0.0170 hc         1 STN      -0.002467
     23 HD22         1.3500     1.5150    -1.5120 hc         1 STN      -0.002467
     24 HD23         3.0150     1.0450    -1.1480 hc         1 STN      -0.002467
     25 HM           5.4730    -2.4810     2.8290 h5         1 STN       0.006200
     26 HN           6.4130    -1.9940    -0.7320 ho         1 STN       0.366000
     27 N            5.4150    -1.6340     0.8970 n          1 STN      -0.029300
@<TRIPOS>BOND
     1     1     2 1   
     2     1    13 1   
     3     1    14 1   
     4     1    15 1   
     5     2     5 1   
     6     2     6 1   
     7     2    16 1   
     8     3     4 1   
     9     3    17 1   
    10     3    18 1   
    11     3    27 1   
    12     4     5 1   
    13     4     7 1   
    14     4    19 1   
    15     5    20 1   
    16     5    21 1   
    17     6    22 1   
    18     6    23 1   
    19     6    24 1   
    20     7    11 1   
    21     7    12 1   
    22     8    10 2   
    23     8    25 1   
    24     8    27 1   
    25     9    26 1   
    26     9    27 1   
@<TRIPOS>SUBSTRUCTURE
     1 STN         1 TEMP              0 ****  ****    0 ROOT
