@<TRIPOS>MOLECULE
STO
   61    68     1     0     0
SMALL
bcc


@<TRIPOS>ATOM
      1 C1           0.0000     0.0000     0.0000 ca         1 STO      -0.042000
      2 C2           1.3850     0.0000     0.0000 ca         1 STO      -0.140000
      3 C3           2.1150     0.0000     1.1750 ca         1 STO      -0.076000
      4 C4           1.5080     0.0010     2.4200 ca         1 STO      -0.140000
      5 C5           0.1150     0.0010     2.4480 ca         1 STO      -0.140200
      6 N6          -0.7580     0.0060     3.5100 na         1 STO       0.362700
      7 C7          -2.0580    -0.0050     3.0250 ca         1 STO      -0.136200
      8 C8          -3.2720    -0.0190     3.7150 ca         1 STO      -0.134200
      9 N9          -3.5070    -0.0060     5.0460 na         1 STO       0.371700
     10 C10         -4.8780    -0.0660     5.2870 ca         1 STO      -0.171200
     11 C11         -5.6190    -0.0910     6.4680 ca         1 STO      -0.135000
     12 C12         -6.9980    -0.1140     6.3460 ca         1 STO      -0.073000
     13 C13         -7.6310    -0.1120     5.1160 ca         1 STO      -0.146000
     14 C14         -6.9190    -0.0880     3.9290 ca         1 STO      -0.026000
     15 C15         -5.5270    -0.0660     4.0290 cp         1 STO      -0.072000
     16 C16         -4.4780    -0.0380     3.0150 cp         1 STO      -0.011000
     17 C17         -4.4610    -0.0300     1.6000 ca         1 STO      -0.133600
     18 C18         -5.5450    -0.0370     0.6060 c          1 STO       0.650100
     19 N19         -5.0390    -0.0310    -0.6390 ns         1 STO      -0.201900
     20 C20         -3.5740    -0.0190    -0.5490 c3         1 STO       0.104300
     21 C21         -3.2450    -0.0160     0.9250 ca         1 STO      -0.074300
     22 C22         -2.0420    -0.0080     1.6230 cp         1 STO      -0.050000
     23 C23         -0.6280    -0.0000     1.2440 cp         1 STO      -0.081000
     24 C24         -0.4110     0.0360     4.9280 c3         1 STO       0.155500
     25 C25         -0.0460    -1.3440     5.4540 c3         1 STO       0.111100
     26 C26         -1.3370    -2.1510     5.6470 c3         1 STO       0.077500
     27 C27         -2.2250    -1.3810     6.6320 c3         1 STO      -0.073400
     28 C28         -2.4880     0.0150     6.0910 c3         1 STO       0.170800
     29 O29         -1.3340     0.7150     5.7310 os         1 STO      -0.345600
     30 O30         -6.7320    -0.0460     0.8720 o          1 STO      -0.690500
     31 N31         -2.0310    -2.2980     4.3610 n7         1 STO      -0.596200
     32 C32         -2.7750    -3.5620     4.4240 c3         1 STO       0.171100
     33 O33          0.7680    -2.0200     4.4940 os         1 STO      -0.380600
     34 C34          1.6260    -2.8970     5.2250 c3         1 STO       0.232700
     35 C35          0.8880     0.8410     5.0170 c3         1 STO      -0.061100
     36 H1          -0.5680    -0.0000    -0.9230 ha         1 STO       0.106000
     37 H2           1.9120    -0.0010    -0.9470 ha         1 STO       0.100000
     38 H3           3.1970    -0.0000     1.1200 ha         1 STO       0.096000
     39 H4           2.0910     0.0010     3.3330 ha         1 STO       0.129000
     40 H11         -5.1360    -0.0930     7.4380 ha         1 STO       0.104000
     41 H12         -7.6020    -0.1330     7.2450 ha         1 STO       0.094000
     42 H13         -8.7130    -0.1310     5.0810 ha         1 STO       0.102000
     43 H14         -7.4190    -0.0870     2.9680 ha         1 STO       0.150000
     44 HN9         -5.5720    -0.0380    -1.4860 hn         1 STO       0.199500
     45 H201        -3.1820     0.8750    -1.0180 h1         1 STO       0.022200
     46 H202        -3.1660    -0.9050    -1.0190 h1         1 STO       0.022200
     47 H25          0.4790    -1.2540     6.3970 h1         1 STO       0.044700
     48 H26         -1.1000    -3.1260     6.0550 h1         1 STO       0.030700
     49 H271        -3.1660    -1.9040     6.7530 hc         1 STO       0.040700
     50 H272        -1.7210    -1.3070     7.5890 hc         1 STO       0.040700
     51 H28         -2.9210     0.5720     6.9130 h2         1 STO       0.044700
     52 HN3         -1.3570    -2.3430     3.6220 hn         1 STO       0.290800
     53 H321        -2.0770    -4.3910     4.4530 h1         1 STO       0.004367
     54 H322        -3.3890    -3.5760     5.3160 h1         1 STO       0.004367
     55 H323        -3.4070    -3.6540     3.5490 h1         1 STO       0.004367
     56 H341         2.2780    -2.3150     5.8650 h1         1 STO      -0.004300
     57 H342         2.2240    -3.4770     4.5330 h1         1 STO      -0.004300
     58 H343         1.0260    -3.5650     5.8320 h1         1 STO      -0.004300
     59 H351         0.8890     1.4260     5.9290 hc         1 STO       0.036033
     60 H352         1.7330     0.1630     5.0220 hc         1 STO       0.036033
     61 H353         0.9610     1.5030     4.1630 hc         1 STO       0.036033
@<TRIPOS>BOND
     1     1     2 ar  
     2     1    23 ar  
     3     1    36 1   
     4     2     3 ar  
     5     2    37 1   
     6     3     4 ar  
     7     3    38 1   
     8     4     5 ar  
     9     4    39 1   
    10     5     6 1   
    11     5    23 ar  
    12     6     7 1   
    13     6    24 1   
    14     7     8 ar  
    15     7    22 ar  
    16     8     9 1   
    17     8    16 ar  
    18     9    10 1   
    19     9    28 1   
    20    10    11 ar  
    21    10    15 ar  
    22    11    12 ar  
    23    11    40 1   
    24    12    13 ar  
    25    12    41 1   
    26    13    14 ar  
    27    13    42 1   
    28    14    15 ar  
    29    14    43 1   
    30    15    16 1   
    31    16    17 ar  
    32    17    18 1   
    33    17    21 ar  
    34    18    19 1   
    35    18    30 2   
    36    19    20 1   
    37    19    44 1   
    38    20    21 1   
    39    20    45 1   
    40    20    46 1   
    41    21    22 ar  
    42    22    23 1   
    43    24    25 1   
    44    24    29 1   
    45    24    35 1   
    46    25    26 1   
    47    25    33 1   
    48    25    47 1   
    49    26    27 1   
    50    26    31 1   
    51    26    48 1   
    52    27    28 1   
    53    27    49 1   
    54    27    50 1   
    55    28    29 1   
    56    28    51 1   
    57    31    32 1   
    58    31    52 1   
    59    32    53 1   
    60    32    54 1   
    61    32    55 1   
    62    33    34 1   
    63    34    56 1   
    64    34    57 1   
    65    34    58 1   
    66    35    59 1   
    67    35    60 1   
    68    35    61 1   
@<TRIPOS>SUBSTRUCTURE
     1 STO         1 TEMP              0 ****  ****    0 ROOT
