@<TRIPOS>MOLECULE
molecule
   43    45     1     0     0
SMALL
bcc


@<TRIPOS>ATOM
      1 PG           0.0000     0.0000     0.0000 p5         1 STP       1.249900
      2 O1G          1.5000     0.0000     0.0000 o          1 STP      -0.905167
      3 O2G         -0.6860     0.0000     1.4630 o          1 STP      -0.905167
      4 O3G         -0.6850    -1.2610    -0.7430 o          1 STP      -0.905167
      5 PB          -0.5610     1.8280    -2.2490 p5         1 STP       1.350800
      6 O1B          0.8210     2.1890    -2.7070 o          1 STP      -0.796500
      7 O2B         -1.2850     0.6720    -3.1170 o          1 STP      -0.796500
      8 O3B         -0.6640     1.2770    -0.7340 os         1 STP      -0.685800
      9 PA          -1.6830     4.4420    -1.4340 p5         1 STP       1.210200
     10 S1A         -3.1490     5.6360    -1.8800 s          1 STP      -0.764000
     11 O2A         -1.6520     3.9560     0.1140 oh         1 STP      -0.652400
     12 O3A         -1.6380     3.0300    -2.2270 os         1 STP      -0.583800
     13 O5'         -0.1800     5.0290    -1.6110 os         1 STP      -0.497200
     14 C5'          0.2530     6.1020    -0.7920 c3         1 STP       0.207400
     15 C4'          1.4600     5.6530     0.0120 c3         1 STP       0.107100
     16 O4'          1.0880     4.5630     0.8720 os         1 STP      -0.329600
     17 C3'          2.0180     6.7370     0.9220 c3         1 STP       0.109100
     18 O3'          2.9300     7.5840     0.2550 oh         1 STP      -0.591800
     19 C2'          2.7080     5.9140     1.9850 c3         1 STP      -0.161400
     20 C1'          1.7460     4.7470     2.1420 c3         1 STP       0.267800
     21 N9           2.3800     3.4980     2.5470 na         1 STP      -0.264000
     22 C8           2.9430     2.5670     1.7110 cc         1 STP       0.501700
     23 N7           3.4380     1.5390     2.3690 nd         1 STP      -0.516100
     24 C5           3.1850     1.8130     3.6900 ca         1 STP      -0.159200
     25 C6           3.4630     1.1170     4.8620 ca         1 STP       0.757200
     26 N6           4.1260    -0.1220     4.8210 nv         1 STP      -0.998500
     27 N1           3.0840     1.6480     6.0500 nb         1 STP      -0.830000
     28 C2           2.4490     2.8450     6.0260 ca         1 STP       0.643900
     29 N3           2.1250     3.6110     4.9610 nb         1 STP      -0.743000
     30 C4           2.5290     3.0260     3.8230 ca         1 STP       0.429800
     31 HOA2        -2.5230     3.9950     0.4730 ho         1 STP       0.452000
     32 H5'1        -0.5440     6.3890    -0.1180 h1         1 STP       0.031200
     33 H5'2         0.5250     6.9460    -1.4130 h1         1 STP       0.031200
     34 H4'          2.2400     5.3210    -0.6630 h1         1 STP       0.097700
     35 H3'          1.2100     7.3110     1.3590 h1         1 STP       0.032700
     36 HO3'         2.8960     8.4450     0.6370 ho         1 STP       0.388000
     37 H2'1         3.6760     5.5710     1.6400 hc         1 STP       0.063200
     38 H2'2         2.7920     6.4710     2.9100 hc         1 STP       0.063200
     39 H1'          0.9990     5.0150     2.8800 h2         1 STP       0.080700
     40 H8           2.9780     2.6660     0.6330 h5         1 STP       0.121800
     41 HN61         4.4180    -0.5040     3.9430 hn         1 STP       0.440300
     42 HN62         4.3180    -0.6150     5.6700 hn         1 STP       0.440300
     43 H2           2.1600     3.2400     6.9920 h5         1 STP       0.010100
@<TRIPOS>BOND
     1     1     2 1
     2     1     3 1
     3     1     4 1
     4     1     8 1
     5     5     6 1
     6     5     7 1
     7     5     8 1
     8     5    12 1
     9     9    10 2
    10     9    11 1
    11     9    12 1
    12     9    13 1
    13    11    31 1
    14    13    14 1
    15    14    15 1
    16    14    32 1
    17    14    33 1
    18    15    16 1
    19    15    17 1
    20    15    34 1
    21    16    20 1
    22    17    18 1
    23    17    19 1
    24    17    35 1
    25    18    36 1
    26    19    20 1
    27    19    37 1
    28    19    38 1
    29    20    21 1
    30    20    39 1
    31    21    22 1
    32    21    30 1
    33    22    23 2
    34    22    40 1
    35    23    24 1
    36    24    25 ar
    37    24    30 ar
    38    25    26 1
    39    25    27 ar
    40    26    41 1
    41    26    42 1
    42    27    28 ar
    43    28    29 ar
    44    28    43 1
    45    29    30 ar
@<TRIPOS>SUBSTRUCTURE
     1 STP         1 TEMP              0 ****  ****    0 ROOT
