@<TRIPOS>MOLECULE
molecule
   53    56     1     0     0
SMALL
bcc


@<TRIPOS>ATOM
      1 C1           0.0000     0.0000     0.0000 c3         1 STR      -0.065400
      2 C2           1.5280     0.0000     0.0000 c3         1 STR      -0.179400
      3 C3           1.9820     0.0000     1.4460 c          1 STR       0.569300
      4 O3           2.8140     0.7840     1.8540 o          1 STR      -0.524100
      5 C4           1.3620    -0.9950     2.3260 ce         1 STR      -0.262200
      6 C5           0.1920    -1.5400     1.9970 c2         1 STR      -0.040400
      7 C6          -0.3930    -2.5780     2.9390 c3         1 STR      -0.050200
      8 C7          -1.8580    -2.2290     3.2080 c3         1 STR      -0.074400
      9 C8          -2.6010    -2.1160     1.8750 c3         1 STR      -0.063700
     10 C9          -2.0390    -0.9370     1.0720 c3         1 STR      -0.051700
     11 C10         -0.5630    -1.1930     0.7520 c3         1 STR      -0.026800
     12 C11         -2.8000    -0.7080    -0.2310 c3         1 STR      -0.080400
     13 C12         -4.3110    -0.5630     0.0120 c3         1 STR      -0.062400
     14 C13         -4.7940    -1.8000     0.7570 c3         1 STR      -0.056000
     15 C14         -4.0720    -1.8410     2.1300 c3         1 STR      -0.065700
     16 C15         -4.8420    -2.9500     2.8540 c3         1 STR      -0.076400
     17 C16         -6.3170    -2.6600     2.4650 c3         1 STR      -0.075400
     18 C17         -6.2700    -1.8660     1.1360 c3         1 STR      -0.160700
     19 C18         -4.3970    -3.0580    -0.0150 c3         1 STR      -0.102100
     20 C19         -0.5180    -2.4050    -0.1820 c3         1 STR      -0.090100
     21 C20         -7.0530    -2.5870     0.0700 c          1 STR       0.575100
     22 O20         -7.1980    -3.7840     0.1330 o          1 STR      -0.529100
     23 C21         -7.6530    -1.8160    -1.0770 c3         1 STR      -0.194100
     24 H11         -0.3510    -0.0320    -1.0240 hc         1 STR       0.051200
     25 H12         -0.3510     0.9100     0.4710 hc         1 STR       0.051200
     26 H21          1.8950    -0.8880    -0.5000 hc         1 STR       0.069700
     27 H22          1.8940     0.8880    -0.5000 hc         1 STR       0.069700
     28 H4           1.8600    -1.2920     3.2410 ha         1 STR       0.151000
     29 H61         -0.3330    -3.5580     2.4810 hc         1 STR       0.055200
     30 H62          0.1580    -2.5710     3.8720 hc         1 STR       0.055200
     31 H71         -1.9120    -1.2820     3.7330 hc         1 STR       0.049200
     32 H72         -2.3100    -3.0080     3.8090 hc         1 STR       0.049200
     33 H8          -2.4890    -3.0340     1.3110 hc         1 STR       0.068700
     34 H9          -2.1120    -0.0410     1.6760 hc         1 STR       0.055700
     35 H111        -2.6280    -1.5490    -0.8910 hc         1 STR       0.047700
     36 H112        -2.4300     0.1970    -0.7000 hc         1 STR       0.047700
     37 H121        -4.5010     0.3200     0.6090 hc         1 STR       0.043200
     38 H122        -4.8260    -0.4860    -0.9380 hc         1 STR       0.043200
     39 H14         -4.1950    -0.8970     2.6470 hc         1 STR       0.058700
     40 H151        -4.7080    -2.8700     3.9260 hc         1 STR       0.049700
     41 H152        -4.5370    -3.9250     2.4940 hc         1 STR       0.049700
     42 H161        -6.7930    -2.0650     3.2350 hc         1 STR       0.057200
     43 H162        -6.8520    -3.5910     2.3220 hc         1 STR       0.057200
     44 H17         -6.6620    -0.8670     1.2850 hc         1 STR       0.065700
     45 H181        -4.8150    -3.0150    -1.0140 hc         1 STR       0.045367
     46 H182        -4.7780    -3.9320     0.4980 hc         1 STR       0.045367
     47 H183        -3.3170    -3.1170    -0.0780 hc         1 STR       0.045367
     48 H191        -1.1370    -3.1960     0.2230 hc         1 STR       0.041367
     49 H192        -0.8890    -2.1210    -1.1600 hc         1 STR       0.041367
     50 H193         0.5030    -2.7550    -0.2710 hc         1 STR       0.041367
     51 H211        -7.0170    -1.9140    -1.9490 hc         1 STR       0.060033
     52 H212        -7.7360    -0.7710    -0.8060 hc         1 STR       0.060033
     53 H213        -8.6360    -2.2110    -1.3020 hc         1 STR       0.060033
@<TRIPOS>BOND
     1     1     2 1
     2     1    11 1
     3     1    24 1
     4     1    25 1
     5     2     3 1
     6     2    26 1
     7     2    27 1
     8     3     4 2
     9     3     5 1
    10     5     6 2
    11     5    28 1
    12     6     7 1
    13     6    11 1
    14     7     8 1
    15     7    29 1
    16     7    30 1
    17     8     9 1
    18     8    31 1
    19     8    32 1
    20     9    10 1
    21     9    15 1
    22     9    33 1
    23    10    11 1
    24    10    12 1
    25    10    34 1
    26    11    20 1
    27    12    13 1
    28    12    35 1
    29    12    36 1
    30    13    14 1
    31    13    37 1
    32    13    38 1
    33    14    15 1
    34    14    18 1
    35    14    19 1
    36    15    16 1
    37    15    39 1
    38    16    17 1
    39    16    40 1
    40    16    41 1
    41    17    18 1
    42    17    42 1
    43    17    43 1
    44    18    21 1
    45    18    44 1
    46    19    45 1
    47    19    46 1
    48    19    47 1
    49    20    48 1
    50    20    49 1
    51    20    50 1
    52    21    22 2
    53    21    23 1
    54    23    51 1
    55    23    52 1
    56    23    53 1
@<TRIPOS>SUBSTRUCTURE
     1 STR         1 TEMP              0 ****  ****    0 ROOT
