@<TRIPOS>MOLECULE
STR
   53    56     1     0     0
SMALL
bcc


@<TRIPOS>ATOM
      1 C1          0.0190    0.0010    0.0170 c3        1 STR     -0.069400
      2 C2          1.5200    0.1690    0.0680 c3        1 STR     -0.182400
      3 C3          2.0260    0.1480    1.4820 c         1 STR      0.569300
      4 O3          2.9780    0.8460    1.8510 o         1 STR     -0.535100
      5 C4          1.3380   -0.7840    2.3830 ce        1 STR     -0.265200
      6 C5          0.2130   -1.4420    2.0520 c2        1 STR     -0.028400
      7 C6         -0.3720   -2.4420    2.9910 c3        1 STR     -0.054200
      8 C7         -1.8610   -2.2500    3.1770 c3        1 STR     -0.072400
      9 C8         -2.5690   -2.2390    1.8330 c3        1 STR     -0.050700
     10 C9         -2.0020   -1.1150    0.9530 c3        1 STR     -0.047700
     11 C10        -0.4810   -1.2690    0.7220 c3        1 STR     -0.015800
     12 C11        -2.7680   -0.9800   -0.3590 c3        1 STR     -0.074400
     13 C12        -4.2750   -0.8700   -0.1820 c3        1 STR     -0.067400
     14 C13        -4.8010   -2.0260    0.6520 c3        1 STR     -0.038000
     15 C14        -4.0530   -1.9880    2.0060 c3        1 STR     -0.061700
     16 C15        -4.8680   -2.9020    2.9090 c3        1 STR     -0.072400
     17 C16        -6.3140   -2.7080    2.4430 c3        1 STR     -0.075400
     18 C17        -6.2690   -1.9050    1.1310 c3        1 STR     -0.164700
     19 C18        -4.6350   -3.3390   -0.0960 c3        1 STR     -0.091100
     20 C19        -0.1550   -2.4810   -0.1460 c3        1 STR     -0.086100
     21 C20        -7.2750   -2.3850    0.1170 c         1 STR      0.576100
     22 O20        -7.6670   -3.5550    0.0590 o         1 STR     -0.533100
     23 C21        -7.7980   -1.3330   -0.8100 c3        1 STR     -0.204100
     24 H11        -0.3020   -0.0270   -1.0580 hc        1 STR      0.050200
     25 H12        -0.4630    0.8970    0.4900 hc        1 STR      0.050200
     26 H21         2.0260   -0.6640   -0.4910 hc        1 STR      0.071700
     27 H22         1.8120    1.1330   -0.4260 hc        1 STR      0.071700
     28 H4          1.8150   -0.9230    3.3680 ha        1 STR      0.148000
     29 H61        -0.1750   -3.4670    2.5710 hc        1 STR      0.056200
     30 H62         0.1370   -2.3870    3.9900 hc        1 STR      0.056200
     31 H71        -2.0570   -1.2880    3.7190 hc        1 STR      0.048200
     32 H72        -2.2720   -3.0810    3.8080 hc        1 STR      0.048200
     33 H8         -2.4070   -3.2340    1.3360 hc        1 STR      0.059700
     34 H9         -2.1440   -0.1510    1.5250 hc        1 STR      0.051700
     35 H111       -2.4130   -0.0600   -0.8950 hc        1 STR      0.044200
     36 H112       -2.5430   -1.8590   -1.0180 hc        1 STR      0.044200
     37 H121       -4.7600   -0.8700   -1.1920 hc        1 STR      0.041700
     38 H122       -4.5280    0.1010    0.3180 hc        1 STR      0.041700
     39 H14        -4.1630   -0.9410    2.4200 hc        1 STR      0.047700
     40 H151       -4.5510   -3.9680    2.7890 hc        1 STR      0.046200
     41 H152       -4.7450   -2.6270    3.9840 hc        1 STR      0.046200
     42 H161       -6.8070   -3.7000    2.2750 hc        1 STR      0.056700
     43 H162       -6.9070   -2.1530    3.2100 hc        1 STR      0.056700
     44 H17        -6.4840   -0.8230    1.3500 hc        1 STR      0.061700
     45 H181       -5.1830   -3.2900   -1.0690 hc        1 STR      0.043367
     46 H182       -5.0610   -4.1810    0.5030 hc        1 STR      0.043367
     47 H183       -3.5630   -3.5580   -0.3090 hc        1 STR      0.043367
     48 H191       -0.6350   -3.4020    0.2620 hc        1 STR      0.041033
     49 H192       -0.5150   -2.3230   -1.1910 hc        1 STR      0.041033
     50 H193        0.9500   -2.6430   -0.1770 hc        1 STR      0.041033
     51 H211       -6.9520   -0.7350   -1.2290 hc        1 STR      0.063700
     52 H212       -8.4750   -0.6470   -0.2440 hc        1 STR      0.063700
     53 H213       -8.3740   -1.7940   -1.6490 hc        1 STR      0.063700
@<TRIPOS>BOND
     1    1    2 1   
     2    1   11 1   
     3    1   24 1   
     4    1   25 1   
     5    2    3 1   
     6    2   26 1   
     7    2   27 1   
     8    3    4 2   
     9    3    5 1   
    10    5    6 2   
    11    5   28 1   
    12    6    7 1   
    13    6   11 1   
    14    7    8 1   
    15    7   29 1   
    16    7   30 1   
    17    8    9 1   
    18    8   31 1   
    19    8   32 1   
    20    9   10 1   
    21    9   15 1   
    22    9   33 1   
    23   10   11 1   
    24   10   12 1   
    25   10   34 1   
    26   11   20 1   
    27   12   13 1   
    28   12   35 1   
    29   12   36 1   
    30   13   14 1   
    31   13   37 1   
    32   13   38 1   
    33   14   15 1   
    34   14   18 1   
    35   14   19 1   
    36   15   16 1   
    37   15   39 1   
    38   16   17 1   
    39   16   40 1   
    40   16   41 1   
    41   17   18 1   
    42   17   42 1   
    43   17   43 1   
    44   18   21 1   
    45   18   44 1   
    46   19   45 1   
    47   19   46 1   
    48   19   47 1   
    49   20   48 1   
    50   20   49 1   
    51   20   50 1   
    52   21   22 2   
    53   21   23 1   
    54   23   51 1   
    55   23   52 1   
    56   23   53 1   
@<TRIPOS>SUBSTRUCTURE
     1 STR         1 TEMP              0 ****  ****    0 ROOT
