@<TRIPOS>MOLECULE
molecule
   35    37     1     0     0
SMALL
bcc


@<TRIPOS>ATOM
      1 S10          0.0000     0.0000     0.0000 sh         1 STS      -0.369900
      2 C2           1.8140     0.0000     0.0000 c3         1 STS       0.010700
      3 C1           2.3240     0.0000     1.4430 c3         1 STS      -0.065000
      4 C11          3.8250     0.1320     1.4440 cc         1 STS       0.504800
      5 N13          4.5150     0.7850     2.3350 nd         1 STS      -0.551100
      6 C15          5.8360     0.7010     2.0390 cd         1 STS       0.079400
      7 C14          5.9420    -0.0660     0.8610 cd         1 STS       0.003000
      8 N12          4.6570    -0.4080     0.5120 na         1 STS      -0.276500
      9 C16          7.2060    -0.3020     0.3320 cd         1 STS      -0.103000
     10 C19          8.3050     0.2200     0.9790 cc         1 STS      -0.078300
     11 N18          8.1760     0.9360     2.0840 na         1 STS      -0.043100
     12 C17          7.0030     1.1900     2.6260 cc         1 STS       0.029700
     13 C3           1.9270    -1.3110     2.1250 c3         1 STS      -0.030100
     14 C4           2.3190    -1.2590     3.5790 ca         1 STS      -0.104300
     15 C5           1.4040    -0.8400     4.5260 ca         1 STS      -0.117500
     16 C6           1.7640    -0.7920     5.8610 ca         1 STS      -0.120500
     17 C7           3.0380    -1.1660     6.2470 ca         1 STS      -0.113000
     18 C8           3.9510    -1.5860     5.2990 ca         1 STS      -0.120500
     19 C9           3.5910    -1.6370     3.9660 ca         1 STS      -0.117500
     20 H10         -0.4430     0.3590    -1.1990 hs         1 STS       0.236800
     21 H21          2.1750    -0.8850    -0.5110 h1         1 STS       0.057700
     22 H22          2.1750     0.8850    -0.5110 h1         1 STS       0.057700
     23 H1           1.8880     0.8330     1.9800 hc         1 STS       0.125700
     24 H12          4.3760    -0.8480    -0.3420 hn         1 STS       0.337700
     25 H16          7.3240    -0.8880    -0.5720 ha         1 STS       0.189000
     26 H19          9.2930     0.0410     0.5750 h4         1 STS       0.208000
     27 H18          8.9990     1.2980     2.5230 hn         1 STS       0.342700
     28 H17          6.9440     1.7810     3.5310 h4         1 STS       0.219000
     29 H31          2.4360    -2.1370     1.6430 hc         1 STS       0.073700
     30 H32          0.8560    -1.4500     2.0440 hc         1 STS       0.073700
     31 H5           0.4060    -0.5470     4.2230 ha         1 STS       0.124000
     32 H6           1.0470    -0.4630     6.6040 ha         1 STS       0.135500
     33 H7           3.3200    -1.1280     7.2920 ha         1 STS       0.140000
     34 H8           4.9490    -1.8810     5.6020 ha         1 STS       0.135500
     35 H9           4.3080    -1.9670     3.2240 ha         1 STS       0.124000
@<TRIPOS>BOND
     1     1     2 1
     2     1    20 1
     3     2     3 1
     4     2    21 1
     5     2    22 1
     6     3     4 1
     7     3    13 1
     8     3    23 1
     9     4     5 2
    10     4     8 1
    11     5     6 1
    12     6     7 1
    13     6    12 2
    14     7     8 2
    15     7     9 1
    16     8    24 1
    17     9    10 2
    18     9    25 1
    19    10    11 1
    20    10    26 1
    21    11    12 1
    22    11    27 1
    23    12    28 1
    24    13    14 1
    25    13    29 1
    26    13    30 1
    27    14    15 ar
    28    14    19 ar
    29    15    16 ar
    30    15    31 1
    31    16    17 ar
    32    16    32 1
    33    17    18 ar
    34    17    33 1
    35    18    19 ar
    36    18    34 1
    37    19    35 1
@<TRIPOS>SUBSTRUCTURE
     1 STS         1 TEMP              0 ****  ****    0 ROOT
