@<TRIPOS>MOLECULE
STS
   35    37     1     0     0
SMALL
bcc


@<TRIPOS>ATOM
      1 S10        -0.1180    0.8500    0.9590 sh        1 STS     -0.360900
      2 C2          1.6010    0.9230    0.5290 c3        1 STS     -0.000300
      3 C1          2.3730    0.3110    1.6840 c3        1 STS     -0.073000
      4 C11         3.8540    0.5350    1.5210 cc        1 STS      0.486800
      5 N13         4.4710    1.2660    0.5680 nd        1 STS     -0.527100
      6 C15         5.8420    1.1910    0.8660 cd        1 STS      0.033400
      7 C14         6.0360    0.3620    2.0670 cd        1 STS      0.055000
      8 N12         4.7780   -0.0300    2.4560 na        1 STS     -0.283500
      9 C16         7.3370    0.1450    2.5570 cd        1 STS     -0.128000
     10 C19         8.3850    0.7400    1.8670 cc        1 STS     -0.043300
     11 N18         8.1910    1.5140    0.7460 na        1 STS     -0.110100
     12 C17         6.9520    1.7520    0.2330 cc        1 STS      0.043700
     13 C3          2.0620   -1.1810    1.8170 c3        1 STS     -0.054100
     14 C4          2.3970   -1.7320    3.1580 ca        1 STS     -0.124300
     15 C5          1.7240   -1.2740    4.2980 ca        1 STS     -0.141500
     16 C6          2.0040   -1.8250    5.5480 ca        1 STS     -0.122500
     17 C7          2.9520   -2.8420    5.6690 ca        1 STS     -0.117000
     18 C8          3.6180   -3.3080    4.5360 ca        1 STS     -0.122500
     19 C9          3.3430   -2.7570    3.2850 ca        1 STS     -0.141500
     20 H10        -0.6060    1.6070   -0.0120 hs        1 STS      0.227800
     21 H21         1.9070    1.9850    0.3650 h1        1 STS      0.083700
     22 H22         1.7940    0.3570   -0.4140 h1        1 STS      0.083700
     23 H1          2.0660    0.8370    2.6390 hc        1 STS      0.107700
     24 H12         4.5350   -0.6460    3.2020 hn        1 STS      0.356700
     25 H16         7.5350   -0.4670    3.4510 ha        1 STS      0.198000
     26 H19         9.4370    0.6120    2.1980 h4        1 STS      0.207000
     27 H18         8.9930    1.9170    0.2930 hn        1 STS      0.341700
     28 H17         6.8670    2.3860   -0.6740 h4        1 STS      0.222000
     29 H31         0.9540   -1.3180    1.6400 hc        1 STS      0.087200
     30 H32         2.5940   -1.7500    1.0090 hc        1 STS      0.087200
     31 H5          0.9540   -0.4910    4.2030 ha        1 STS      0.141500
     32 H6          1.4630   -1.4660    6.4380 ha        1 STS      0.147500
     33 H7          3.1620   -3.2850    6.6550 ha        1 STS      0.150000
     34 H8          4.3480   -4.1280    4.6260 ha        1 STS      0.147500
     35 H9          3.8440   -3.1570    2.3900 ha        1 STS      0.141500
@<TRIPOS>BOND
     1    1    2 1   
     2    1   20 1   
     3    2    3 1   
     4    2   21 1   
     5    2   22 1   
     6    3    4 1   
     7    3   13 1   
     8    3   23 1   
     9    4    5 2   
    10    4    8 1   
    11    5    6 1   
    12    6    7 1   
    13    6   12 2   
    14    7    8 2   
    15    7    9 1   
    16    8   24 1   
    17    9   10 2   
    18    9   25 1   
    19   10   11 1   
    20   10   26 1   
    21   11   12 1   
    22   11   27 1   
    23   12   28 1   
    24   13   14 1   
    25   13   29 1   
    26   13   30 1   
    27   14   15 ar  
    28   14   19 ar  
    29   15   16 ar  
    30   15   31 1   
    31   16   17 ar  
    32   16   32 1   
    33   17   18 ar  
    34   17   33 1   
    35   18   19 ar  
    36   18   34 1   
    37   19   35 1   
@<TRIPOS>SUBSTRUCTURE
     1 STS         1 TEMP              0 ****  ****    0 ROOT
