@<TRIPOS>MOLECULE
STT
   22    22     1     0     0
SMALL
bcc


@<TRIPOS>ATOM
      1 OAD          0.0000     0.0000     0.0000 o          1 STT      -0.649200
      2 SBN          1.4210     0.0000     0.0000 s6         1 STT       0.957800
      3 OAB          1.7970     0.0000     1.4750 o          1 STT      -0.649200
      4 OAC          2.1540    -1.0870    -0.5490 o          1 STT      -0.649200
      5 CAX          2.0560     1.5790    -0.6290 c3         1 STT      -0.073600
      6 CAV          1.7380     1.6990    -2.1210 c3         1 STT       0.030000
      7 NBM          2.2510     2.9740    -2.6290 n          1 STT       0.137600
      8 CBI          3.4740     3.1120    -3.1260 c          1 STT       0.604700
      9 OAA          4.2460     2.1720    -3.1880 o          1 STT      -0.687500
     10 CBJ          1.5200     4.1070    -2.6370 cs         1 STT       0.485300
     11 SAE          0.0190     4.3140    -2.1280 s          1 STT      -0.442400
     12 SBA          2.6080     5.3180    -3.3440 sx         1 STT      -0.171900
     13 CBK          3.8360     4.3790    -3.5750 ce         1 STT      -0.785400
     14 CAG          5.1640     4.7720    -4.1710 c3         1 STT       0.186100
     15 HAX          3.1290     1.6190    -0.4850 h1         1 STT       0.063700
     16 HAXA         1.5890     2.3960    -0.0930 h1         1 STT       0.063700
     17 HAV          2.2060     0.8820    -2.6570 h1         1 STT       0.065200
     18 HAVA         0.6650     1.6580    -2.2660 h1         1 STT       0.065200
     19 HAG          5.3450     4.1890    -5.0650 hc         1 STT      -0.010633
     20 HAGA         5.9520     4.5850    -3.4510 hc         1 STT      -0.010633
     21 HAGB         5.1480     5.8250    -4.4230 hc         1 STT      -0.010633
     22 HSBA         2.4330     6.6090    -3.5970 hs         1 STT       0.481000
@<TRIPOS>BOND
     1     1     2 1   
     2     2     3 1   
     3     2     4 1   
     4     2     5 1   
     5     5     6 1   
     6     5    15 1   
     7     5    16 1   
     8     6     7 1   
     9     6    17 1   
    10     6    18 1   
    11     7     8 1   
    12     7    10 1   
    13     8     9 2   
    14     8    13 1   
    15    10    11 2   
    16    10    12 1   
    17    12    13 2   
    18    12    22 1   
    19    13    14 1   
    20    14    19 1   
    21    14    20 1   
    22    14    21 1   
@<TRIPOS>SUBSTRUCTURE
     1 STT         1 TEMP              0 ****  ****    0 ROOT
