@<TRIPOS>MOLECULE
STU
   61    68     1     0     0
SMALL
bcc


@<TRIPOS>ATOM
      1 O4           0.0000     0.0000     0.0000 os         1 STU      -0.346600
      2 C25          1.3970     0.0000     0.0000 c3         1 STU       0.171800
      3 C24          2.0190    -1.0790    -0.8710 c3         1 STU      -0.073400
      4 C23          1.4160    -2.4410    -0.5030 c3         1 STU       0.077500
      5 C22         -0.1040    -2.3430    -0.6860 c3         1 STU       0.111100
      6 C21         -0.6300    -1.2310     0.2090 c3         1 STU       0.156500
      7 C26         -2.0830    -1.0350    -0.2290 c3         1 STU      -0.061100
      8 N2          -0.6940    -1.6410     1.6090 na         1 STU       0.361700
      9 C18          0.2600    -1.3160     2.5620 ca         1 STU      -0.136200
     10 C19          1.4480    -0.5940     2.4310 ca         1 STU      -0.134200
     11 C6           2.2730    -0.3910     3.5370 cp         1 STU      -0.011000
     12 C7           1.8900    -0.9120     4.7950 ca         1 STU      -0.134600
     13 C10          0.7040    -1.6300     4.9120 ca         1 STU      -0.075300
     14 C11         -0.1130    -1.8410     3.8070 cp         1 STU      -0.050000
     15 C12         -1.3830    -2.5330     3.5790 cp         1 STU      -0.081000
     16 C17         -1.6860    -2.3830     2.2060 ca         1 STU      -0.139200
     17 C16         -2.8440    -2.9430     1.6710 ca         1 STU      -0.140000
     18 C15         -3.6670    -3.6420     2.5390 ca         1 STU      -0.076000
     19 C14         -3.3680    -3.7870     3.8810 ca         1 STU      -0.140000
     20 C13         -2.2230    -3.2390     4.4380 ca         1 STU      -0.042000
     21 C9           0.5970    -2.0440     6.3600 c3         1 STU       0.104300
     22 N1           1.7900    -1.5090     7.0260 ns         1 STU      -0.200900
     23 C8           2.5320    -0.8550     6.1170 c          1 STU       0.650100
     24 O5           3.5860    -0.2960     6.3540 o          1 STU      -0.690500
     25 C5           3.4160     0.3740     3.0460 cp         1 STU      -0.072000
     26 C20          3.2040     0.5800     1.6630 ca         1 STU      -0.170200
     27 C1           4.1340     1.2870     0.9000 ca         1 STU      -0.135000
     28 C2           5.2530     1.7680     1.5580 ca         1 STU      -0.073000
     29 C3           5.4570     1.5670     2.9110 ca         1 STU      -0.146000
     30 C4           4.5510     0.8680     3.6910 ca         1 STU      -0.026000
     31 N3           1.9790     0.0000     1.3390 na         1 STU       0.370700
     32 O6          -0.6860    -3.5880    -0.2930 os         1 STU      -0.380600
     33 C27         -0.7660    -4.3960    -1.4680 c3         1 STU       0.232700
     34 N4           1.7310    -2.7640     0.8950 n7         1 STU      -0.596200
     35 C28          2.9960    -3.5110     0.8810 c3         1 STU       0.171100
     36 H25          1.6890     0.9420    -0.4470 h2         1 STU       0.044700
     37 H241         3.0890    -1.1030    -0.7070 hc         1 STU       0.040700
     38 H242         1.8120    -0.8640    -1.9130 hc         1 STU       0.040700
     39 H23          1.8140    -3.2050    -1.1600 h1         1 STU       0.030700
     40 H22         -0.3390    -2.1280    -1.7220 h1         1 STU       0.044700
     41 H261        -2.4420    -1.9390    -0.7050 hc         1 STU       0.036367
     42 H262        -2.1400    -0.2110    -0.9300 hc         1 STU       0.036367
     43 H263        -2.6950    -0.8150     0.6370 hc         1 STU       0.036367
     44 H16         -3.0900    -2.8380     0.6210 ha         1 STU       0.129000
     45 H15         -4.5750    -4.0900     2.1530 ha         1 STU       0.096000
     46 H14         -4.0470    -4.3440     4.5150 ha         1 STU       0.100000
     47 H13         -1.9920    -3.3550     5.4900 ha         1 STU       0.106000
     48 H91          0.5820    -3.1250     6.4370 h1         1 STU       0.022200
     49 H92         -0.2960    -1.6210     6.8030 h1         1 STU       0.022200
     50 HN1          2.0130    -1.6130     7.9970 hn         1 STU       0.199500
     51 H1           3.9870     1.4520    -0.1600 ha         1 STU       0.104000
     52 H2           5.9940     2.3220     0.9940 ha         1 STU       0.094000
     53 H3           6.3520     1.9660     3.3740 ha         1 STU       0.102000
     54 H4           4.7150     0.7130     4.7500 ha         1 STU       0.150000
     55 H271        -1.1410    -5.3780    -1.2050 h1         1 STU      -0.004300
     56 H272        -1.4370    -3.9320    -2.1800 h1         1 STU      -0.004300
     57 H273         0.2190    -4.4910    -1.9080 h1         1 STU      -0.004300
     58 HN4          1.0070    -3.3400     1.2750 hn         1 STU       0.290800
     59 H281         3.3370    -3.6610     1.8990 h1         1 STU       0.004367
     60 H282         3.7400    -2.9510     0.3290 h1         1 STU       0.004367
     61 H283         2.8420    -4.4730     0.4070 h1         1 STU       0.004367
@<TRIPOS>BOND
     1     1     2 1   
     2     1     6 1   
     3     2     3 1   
     4     2    31 1   
     5     2    36 1   
     6     3     4 1   
     7     3    37 1   
     8     3    38 1   
     9     4     5 1   
    10     4    34 1   
    11     4    39 1   
    12     5     6 1   
    13     5    32 1   
    14     5    40 1   
    15     6     7 1   
    16     6     8 1   
    17     7    41 1   
    18     7    42 1   
    19     7    43 1   
    20     8     9 1   
    21     8    16 1   
    22     9    10 ar  
    23     9    14 ar  
    24    10    11 ar  
    25    10    31 1   
    26    11    12 ar  
    27    11    25 1   
    28    12    13 ar  
    29    12    23 1   
    30    13    14 ar  
    31    13    21 1   
    32    14    15 1   
    33    15    16 ar  
    34    15    20 ar  
    35    16    17 ar  
    36    17    18 ar  
    37    17    44 1   
    38    18    19 ar  
    39    18    45 1   
    40    19    20 ar  
    41    19    46 1   
    42    20    47 1   
    43    21    22 1   
    44    21    48 1   
    45    21    49 1   
    46    22    23 1   
    47    22    50 1   
    48    23    24 2   
    49    25    26 ar  
    50    25    30 ar  
    51    26    27 ar  
    52    26    31 1   
    53    27    28 ar  
    54    27    51 1   
    55    28    29 ar  
    56    28    52 1   
    57    29    30 ar  
    58    29    53 1   
    59    30    54 1   
    60    32    33 1   
    61    33    55 1   
    62    33    56 1   
    63    33    57 1   
    64    34    35 1   
    65    34    58 1   
    66    35    59 1   
    67    35    60 1   
    68    35    61 1   
@<TRIPOS>SUBSTRUCTURE
     1 STU         1 TEMP              0 ****  ****    0 ROOT
