@<TRIPOS>MOLECULE
STX
   30    30     1     0     0
SMALL
bcc


@<TRIPOS>ATOM
      1 N           0.0110    0.0010   -0.0090 n4        1 STX     -0.748000
      2 CA          1.5000    0.0010    0.0800 c3        1 STX     -0.008200
      3 C           1.9960    0.0010    1.5240 c         1 STX      0.515600
      4 O           1.2160    0.0010    2.4750 o         1 STX     -0.475100
      5 CD         -0.4620    0.0020   -1.4120 c3        1 STX      0.080100
      6 C5          3.4430    0.0000    1.6180 cc        1 STX      0.286900
      7 N4          4.4120   -0.0010    0.6660 nd        1 STX     -0.267000
      8 N3          5.5810   -0.0010    1.2460 nd        1 STX     -0.345000
      9 C2          5.4120   -0.0000    2.6020 cc        1 STX      0.552700
     10 O1          4.0490    0.0000    2.8860 os        1 STX     -0.317800
     11 C6          6.3990    0.0000    3.7280 c3        1 STX     -0.079300
     12 C7          7.2660    1.2490    3.6050 c3        1 STX     -0.098433
     13 C8          5.6710    0.0000    5.0640 c3        1 STX     -0.098433
     14 C9          7.2670   -1.2490    3.6060 c3        1 STX     -0.098433
     15 HN         -0.3500   -0.8270    0.4850 hn        1 STX      0.465800
     16 HA1         1.8990    0.9170   -0.4490 hx        1 STX      0.145700
     17 HA2         1.8990   -0.9150   -0.4490 hx        1 STX      0.145700
     18 HD1        -1.5860    0.0020   -1.4190 hx        1 STX      0.114367
     19 HD2        -0.0810    0.9190   -1.9390 hx        1 STX      0.114367
     20 HD3        -0.0820   -0.9160   -1.9390 hx        1 STX      0.114367
     21 H71         6.6410    2.1710    3.6800 hc        1 STX      0.059256
     22 H72         7.8140    1.2560    2.6330 hc        1 STX      0.059256
     23 H73         8.0130    1.2560    4.4370 hc        1 STX      0.059256
     24 H81         6.4180    0.0010    5.8940 hc        1 STX      0.059256
     25 H82         5.0270    0.9070    5.1600 hc        1 STX      0.059256
     26 H83         5.0280   -0.9070    5.1600 hc        1 STX      0.059256
     27 H91         7.8150   -1.2560    2.6330 hc        1 STX      0.059256
     28 H92         6.6420   -2.1700    3.6810 hc        1 STX      0.059256
     29 H93         8.0140   -1.2550    4.4370 hc        1 STX      0.059256
     30 H2         -0.3490    0.8300    0.4850 hn        1 STX      0.465800
@<TRIPOS>BOND
     1    1    2 1   
     2    1    5 1   
     3    1   15 1   
     4    1   30 1   
     5    2    3 1   
     6    2   16 1   
     7    2   17 1   
     8    3    4 2   
     9    3    6 1   
    10    5   18 1   
    11    5   19 1   
    12    5   20 1   
    13    6    7 2   
    14    6   10 1   
    15    7    8 1   
    16    8    9 2   
    17    9   10 1   
    18    9   11 1   
    19   11   12 1   
    20   11   13 1   
    21   11   14 1   
    22   12   21 1   
    23   12   22 1   
    24   12   23 1   
    25   13   24 1   
    26   13   25 1   
    27   13   26 1   
    28   14   27 1   
    29   14   28 1   
    30   14   29 1   
@<TRIPOS>SUBSTRUCTURE
     1 STX         1 TEMP              0 ****  ****    0 ROOT
