@<TRIPOS>MOLECULE
STZ
   33    33     1     0     0
SMALL
bcc


@<TRIPOS>ATOM
      1 O3           0.0000     0.0000     0.0000 oh         1 STZ      -0.578800
      2 C3           1.4290     0.0000     0.0000 c3         1 STZ       0.162100
      3 C4           1.9420     0.0000     1.4430 c3         1 STZ       0.135100
      4 O4           1.5290     1.2020     2.0970 oh         1 STZ      -0.583800
      5 C5           3.4690    -0.0790     1.4340 c3         1 STZ       0.175100
      6 C6           3.9870    -0.1400     2.8730 c3         1 STZ       0.225400
      7 O6           5.4160    -0.0960     2.8690 oh         1 STZ      -0.584800
      8 O5           3.8800    -1.2530     0.7300 os         1 STZ      -0.410600
      9 C1           3.4710    -1.2860    -0.6380 c3         1 STZ       0.391900
     10 O1           3.9530    -2.4830    -1.2510 oh         1 STZ      -0.548800
     11 C2           1.9420    -1.2560    -0.7120 c3         1 STZ      -0.024300
     12 N2           1.5200    -1.2290    -2.1150 ns         1 STZ      -0.168900
     13 CAM          1.3940    -2.3820    -2.8020 c          1 STZ       0.593100
     14 OAG          1.6310    -3.4420    -2.2590 o          1 STZ      -0.633100
     15 NAN          1.0060    -2.3580    -4.0920 n          1 STZ       0.078200
     16 CAH          0.8700    -3.6110    -4.8400 c3         1 STZ       0.037300
     17 NAO          0.7550    -1.2320    -4.6700 n2         1 STZ       0.024700
     18 OAP          0.4040    -1.2100    -5.8350 o          1 STZ      -0.315300
     19 H3          -0.3140     0.8520    -0.2530 ho         1 STZ       0.399000
     20 HA           1.7960     0.8810    -0.5130 h1         1 STZ       0.014700
     21 H4           1.5400    -0.8590     1.9680 h1         1 STZ       0.030700
     22 H2           1.5400    -2.1360    -0.2250 h1         1 STZ       0.089700
     23 HB           0.8070     1.0150     2.6730 ho         1 STZ       0.402000
     24 H5           3.8710     0.7960     0.9380 h1         1 STZ       0.025700
     25 H61C         3.6550    -1.0610     3.3380 h1         1 STZ      -0.000800
     26 H62C         3.6020     0.7050     3.4320 h1         1 STZ      -0.000800
     27 H6           5.7330    -0.0850     3.7560 ho         1 STZ       0.391000
     28 H1           3.8730    -0.4230    -1.1550 h2         1 STZ      -0.014300
     29 HC           4.8930    -2.4440    -1.3200 ho         1 STZ       0.398000
     30 HD           1.3560    -0.3540    -2.5710 hn         1 STZ       0.185500
     31 HAH1         0.3450    -4.3390    -4.2340 h1         1 STZ       0.035033
     32 HAH2         0.3120    -3.4300    -5.7510 h1         1 STZ       0.035033
     33 HAH3         1.8540    -3.9910    -5.0900 h1         1 STZ       0.035033
@<TRIPOS>BOND
     1     1     2 1   
     2     1    19 1   
     3     2     3 1   
     4     2    11 1   
     5     2    20 1   
     6     3     4 1   
     7     3     5 1   
     8     3    21 1   
     9     4    23 1   
    10     5     6 1   
    11     5     8 1   
    12     5    24 1   
    13     6     7 1   
    14     6    25 1   
    15     6    26 1   
    16     7    27 1   
    17     8     9 1   
    18     9    10 1   
    19     9    11 1   
    20     9    28 1   
    21    10    29 1   
    22    11    12 1   
    23    11    22 1   
    24    12    13 1   
    25    12    30 1   
    26    13    14 2   
    27    13    15 1   
    28    15    16 1   
    29    15    17 1   
    30    16    31 1   
    31    16    32 1   
    32    16    33 1   
    33    17    18 2   
@<TRIPOS>SUBSTRUCTURE
     1 STZ         1 TEMP              0 ****  ****    0 ROOT
