@<TRIPOS>MOLECULE
molecule
   44    46     1     0     0
SMALL
bcc


@<TRIPOS>ATOM
      1 C1           0.0000     0.0000     0.0000 ca         1 SU0      -0.325500
      2 N1          -1.1260    -1.5810    -1.9510 nz         1 SU0      -0.805500
      3 O1          -2.1640     0.5460    -1.2500 o          1 SU0      -0.522300
      4 S1          -0.8800     0.0010    -1.5260 sy         1 SU0       1.224200
      5 C2           1.3820     0.0000     0.0000 ca         1 SU0      -0.040500
      6 O2           0.0020     0.5450    -2.4980 o          1 SU0      -0.522300
      7 C3           2.0740     0.0000     1.1950 ca         1 SU0      -0.163000
      8 O3           3.7270    -1.2050     2.7420 o          1 SU0      -0.551100
      9 C4           1.3810     0.0010     2.3980 ca         1 SU0       0.178600
     10 O4           8.6380    -1.1450     4.3550 o          1 SU0      -0.558500
     11 C5          -0.0070     0.0010     2.3950 ca         1 SU0      -0.163000
     12 C6          -0.6940     0.0060     1.1960 ca         1 SU0      -0.040500
     13 C7           3.2430    -0.6710     3.7170 c          1 SU0       0.658100
     14 N7           2.0800     0.0000     3.6100 ns         1 SU0      -0.485100
     15 C8           3.9430    -0.7590     5.0490 c3         1 SU0      -0.114200
     16 C9           5.2110    -1.5580     4.8980 cc         1 SU0       0.030600
     17 C10          6.4030    -0.9410     4.6840 cd         1 SU0      -0.253200
     18 C11          7.5770    -1.7110     4.5470 c          1 SU0       0.741800
     19 O12          7.5530    -3.0510     4.6210 os         1 SU0      -0.297200
     20 C13          6.4030    -3.7250     4.8310 ca         1 SU0       0.212100
     21 C14          6.3960    -5.1100     4.9060 ca         1 SU0      -0.180000
     22 C15          5.2040    -5.7820     5.1220 ca         1 SU0       0.195100
     23 C16          4.0100    -5.0780     5.2660 ca         1 SU0      -0.244000
     24 C17          3.9990    -3.7150     5.1950 ca         1 SU0      -0.042000
     25 C18          5.1940    -3.0190     4.9850 ca         1 SU0      -0.189800
     26 O19          5.1990    -7.1380     5.1930 os         1 SU0      -0.311900
     27 C20          3.9380    -7.7710     5.4190 c3         1 SU0       0.127700
     28 H10          6.4660     0.1400     4.7140 ha         1 SU0       0.168000
     29 H20          3.2590    -7.5210     4.6130 h1         1 SU0       0.047033
     30 H20A         3.5240    -7.4260     6.3590 h1         1 SU0       0.047033
     31 H20B         4.0750    -8.8450     5.4570 h1         1 SU0       0.047033
     32 HN1         -1.6760    -1.6210    -2.7860 hn         1 SU0       0.491467
     33 H2           2.0960     0.0810    -0.8110 ha         1 SU0       0.177000
     34 H3           3.0210     0.3980     0.8500 ha         1 SU0       0.173500
     35 H14          7.3200    -5.6650     4.7950 ha         1 SU0       0.176000
     36 H5          -0.5520     0.0000     3.3320 ha         1 SU0       0.173500
     37 H6          -1.7310     0.0560     1.5050 ha         1 SU0       0.177000
     38 H16          3.0850    -5.6160     5.4340 ha         1 SU0       0.142000
     39 HN7          1.7270     0.5170     4.3910 hn         1 SU0       0.344500
     40 H17          3.0670    -3.1730     5.3080 ha         1 SU0       0.124000
     41 H8           4.1830     0.2390     5.3960 hc         1 SU0       0.085200
     42 H8A          3.2930    -1.2440     5.7660 hc         1 SU0       0.085200
     43 HN1A        -0.2430    -2.0240    -2.1130 hn         1 SU0       0.491467
     44 H13         -1.6060    -2.0550    -1.2120 hn         1 SU0       0.491467
@<TRIPOS>BOND
     1    12     1 ar
     2     5     1 ar
     3     1     4 1
     4    32     2 1
     5     2     4 1
     6     2    43 1
     7     3     4 2
     8     4     6 2
     9     7     5 ar
    10     5    33 1
    11     9     7 ar
    12    34     7 1
    13    13     8 2
    14    14     9 1
    15     9    11 ar
    16    18    10 2
    17    36    11 1
    18    11    12 ar
    19    12    37 1
    20    15    13 1
    21    13    14 1
    22    39    14 1
    23    42    15 1
    24    41    15 1
    25    15    16 1
    26    25    16 1
    27    16    17 2
    28    17    28 1
    29    17    18 1
    30    19    18 1
    31    20    19 1
    32    25    20 ar
    33    21    20 ar
    34    22    21 ar
    35    21    35 1
    36    23    22 ar
    37    26    22 1
    38    38    23 1
    39    23    24 ar
    40    40    24 1
    41    24    25 ar
    42    26    27 1
    43    31    27 1
    44    29    27 1
    45    27    30 1
    46    44     2 1
@<TRIPOS>SUBSTRUCTURE
     1 SU0         1 TEMP              0 ****  ****    0 ROOT
