@<TRIPOS>MOLECULE
molecule
   37    39     1     0     0
SMALL
bcc


@<TRIPOS>ATOM
      1 N1           0.0000     0.0000     0.0000 ns         1 SU1      -0.455100
      2 C2           1.3440     0.0000     0.0000 c          1 SU1       0.717700
      3 O2           2.0600     0.0010    -0.9860 o          1 SU1      -0.650500
      4 C3           1.7980     0.0000     1.3960 cc         1 SU1      -0.252400
      5 C4           0.3130    -0.0010     3.5730 ca         1 SU1      -0.083000
      6 C5          -0.9870    -0.0020     4.0340 ca         1 SU1      -0.154000
      7 C6          -2.0420    -0.0010     3.1370 ca         1 SU1      -0.115000
      8 C7          -1.8100    -0.0010     1.7770 ca         1 SU1      -0.161000
      9 C8          -0.5060    -0.0000     1.2940 ca         1 SU1       0.036600
     10 C9           0.5590    -0.0070     2.2040 ca         1 SU1      -0.073800
     11 C10          3.1010    -0.0010     1.8550 cf         1 SU1       0.118800
     12 N1'          4.1570    -0.9110    -0.2050 na         1 SU1      -0.123100
     13 C2'          4.1690    -0.1550     0.9480 cd         1 SU1      -0.177100
     14 C3'          5.4260     0.4200     1.0540 cc         1 SU1      -0.048300
     15 C4'          6.1610     0.0060    -0.0570 cc         1 SU1      -0.186300
     16 C5'          5.3700    -0.8050    -0.8040 cd         1 SU1      -0.128300
     17 C11          7.5860     0.3840    -0.3700 c3         1 SU1      -0.008800
     18 C12          5.9040     1.3310     2.1540 c3         1 SU1      -0.008100
     19 C13          6.5270     0.4960     3.2730 c3         1 SU1      -0.177400
     20 C14          7.0050     1.4060     4.3750 c          1 SU1       0.889600
     21 O3           6.8630     2.6020     4.2740 o          1 SU1      -0.853800
     22 O4           7.5900     0.8900     5.4660 o          1 SU1      -0.853800
     23 HN1         -0.5640     0.0000    -0.8270 hn         1 SU1       0.328500
     24 H4           1.1390    -0.0020     4.2740 ha         1 SU1       0.143000
     25 H5          -1.1830    -0.0020     5.1000 ha         1 SU1       0.129000
     26 H6          -3.0610    -0.0020     3.5070 ha         1 SU1       0.123000
     27 H7          -2.6430    -0.0010     1.0850 ha         1 SU1       0.121000
     28 H101         3.2970    -0.0000     2.9210 ha         1 SU1       0.164000
     29 H5'1         5.6590    -1.2880    -1.7300 h4         1 SU1       0.153000
     30 H111         7.6810     1.4630    -0.3690 hc         1 SU1       0.035033
     31 H112         8.2440    -0.0370     0.3800 hc         1 SU1       0.035033
     32 H113         7.8560    -0.0010    -1.3460 hc         1 SU1       0.035033
     33 H121         5.0660     1.8940     2.5470 hc         1 SU1       0.057200
     34 H122         6.6450     2.0160     1.7590 hc         1 SU1       0.057200
     35 H131         7.3660    -0.0660     2.8790 hc         1 SU1       0.029700
     36 H132         5.7870    -0.1900     3.6660 hc         1 SU1       0.029700
     37 HN1'         3.3840    -1.4490    -0.5430 hn         1 SU1       0.306700
@<TRIPOS>BOND
     1     1     2 1
     2     1     9 1
     3     1    23 1
     4     2     3 2
     5     2     4 1
     6     4    10 1
     7     4    11 2
     8     5     6 ar
     9     5    10 ar
    10     5    24 1
    11     6     7 ar
    12     6    25 1
    13     7     8 ar
    14     7    26 1
    15     8     9 ar
    16     8    27 1
    17     9    10 ar
    18    11    13 1
    19    11    28 1
    20    12    13 1
    21    12    16 1
    22    12    37 1
    23    13    14 2
    24    14    15 1
    25    14    18 1
    26    15    16 2
    27    15    17 1
    28    16    29 1
    29    17    30 1
    30    17    31 1
    31    17    32 1
    32    18    19 1
    33    18    33 1
    34    18    34 1
    35    19    20 1
    36    19    35 1
    37    19    36 1
    38    20    21 1
    39    20    22 1
@<TRIPOS>SUBSTRUCTURE
     1 SU1         1 TEMP              0 ****  ****    0 ROOT
