@<TRIPOS>MOLECULE
SU2
   46    49     1     0     0
SMALL
bcc


@<TRIPOS>ATOM
      1 N1           0.0000     0.0000     0.0000 ns         1 SU2      -0.012100
      2 C2           1.3440     0.0000     0.0000 c          1 SU2       0.609500
      3 O2           2.0640    -0.0010    -0.9760 o          1 SU2      -0.640500
      4 C3           1.7890     0.0000     1.4460 c3         1 SU2      -0.069400
      5 C4           0.2180     0.0000     3.5780 ca         1 SU2      -0.041000
      6 C5          -1.0960     0.0000     4.0110 ca         1 SU2      -0.125000
      7 C6          -2.1250     0.0020     3.0870 ca         1 SU2      -0.068000
      8 C7          -1.8490     0.0010     1.7360 ca         1 SU2      -0.119000
      9 C8          -0.5280     0.0010     1.2920 ca         1 SU2      -0.098400
     10 C9           0.4980     0.0020     2.2320 ca         1 SU2      -0.150300
     11 C10          2.6030    -1.2570     1.7560 c3         1 SU2       0.061900
     12 C1'          3.8610    -1.2580     0.9270 ca         1 SU2      -0.119300
     13 C2'          5.0120    -0.6730     1.4200 ca         1 SU2      -0.055000
     14 C3'          6.1670    -0.6720     0.6620 ca         1 SU2      -0.139000
     15 C4'          6.1710    -1.2610    -0.5960 ca         1 SU2       0.007600
     16 C5'          5.0110    -1.8440    -1.0890 ca         1 SU2      -0.139000
     17 C6'          3.8620    -1.8460    -0.3240 ca         1 SU2      -0.055000
     18 N1'          9.3590    -2.5900    -2.7910 n          1 SU2      -0.189800
     19 C11         10.0990    -3.5680    -3.3490 c          1 SU2       0.631900
     20 O3          11.0100    -4.0700    -2.7260 o          1 SU2      -0.653100
     21 C2B          8.2480    -1.9670    -3.5270 c3         1 SU2       0.056500
     22 C3B          7.0140    -1.9500    -2.6190 c3         1 SU2       0.105800
     23 N4'          7.3370    -1.2620    -1.3650 nh         1 SU2      -0.349000
     24 C5B          8.3140    -2.0890    -0.6490 c3         1 SU2       0.105800
     25 C6B          9.6300    -2.1180    -1.4250 c3         1 SU2       0.056500
     26 HN1         -0.5580    -0.0010    -0.8310 hn         1 SU2       0.175500
     27 H3           2.3630     0.8930     1.6630 hc         1 SU2       0.065700
     28 H4           1.0270    -0.0010     4.2990 ha         1 SU2       0.105000
     29 H5          -1.3180     0.0010     5.0710 ha         1 SU2       0.108000
     30 H6          -3.1530     0.0020     3.4270 ha         1 SU2       0.105000
     31 H7          -2.6610     0.0030     1.0190 ha         1 SU2       0.106000
     32 H101         2.0150    -2.1360     1.5200 hc         1 SU2       0.021700
     33 H102         2.8640    -1.2690     2.8070 hc         1 SU2       0.021700
     34 H2'          5.0090    -0.2140     2.4010 ha         1 SU2       0.105000
     35 H3'          7.0690    -0.2150     1.0500 ha         1 SU2       0.119000
     36 H5'          5.0100    -2.3050    -2.0690 ha         1 SU2       0.119000
     37 H6'          2.9580    -2.3010    -0.7080 ha         1 SU2       0.105000
     38 H11          9.8970    -3.8880    -4.3640 h5         1 SU2      -0.018800
     39 H2'1         8.5140    -0.9520    -3.7970 h1         1 SU2       0.032450
     40 H2'2         8.0340    -2.5430    -4.4190 h1         1 SU2       0.032450
     41 H3'1         6.7130    -2.9680    -2.4030 h1         1 SU2       0.029950
     42 H3'2         6.2070    -1.4280    -3.1180 h1         1 SU2       0.029950
     43 H5'1         8.4860    -1.6700     0.3350 h1         1 SU2       0.029950
     44 H5'2         7.9300    -3.0970    -0.5550 h1         1 SU2       0.029950
     45 H6'1        10.3230    -2.7940    -0.9380 h1         1 SU2       0.032450
     46 H6'2        10.0510    -1.1210    -1.4620 h1         1 SU2       0.032450
@<TRIPOS>BOND
     1     1     2 1   
     2     1     9 1   
     3     1    26 1   
     4     2     3 2   
     5     2     4 1   
     6     4    10 1   
     7     4    11 1   
     8     4    27 1   
     9     5     6 ar  
    10     5    10 ar  
    11     5    28 1   
    12     6     7 ar  
    13     6    29 1   
    14     7     8 ar  
    15     7    30 1   
    16     8     9 ar  
    17     8    31 1   
    18     9    10 ar  
    19    11    12 1   
    20    11    32 1   
    21    11    33 1   
    22    12    13 ar  
    23    12    17 ar  
    24    13    14 ar  
    25    13    34 1   
    26    14    15 ar  
    27    14    35 1   
    28    15    16 ar  
    29    15    23 1   
    30    16    17 ar  
    31    16    36 1   
    32    17    37 1   
    33    18    19 1   
    34    18    21 1   
    35    18    25 1   
    36    19    20 2   
    37    19    38 1   
    38    21    22 1   
    39    21    39 1   
    40    21    40 1   
    41    22    23 1   
    42    22    41 1   
    43    22    42 1   
    44    23    24 1   
    45    24    25 1   
    46    24    43 1   
    47    24    44 1   
    48    25    45 1   
    49    25    46 1   
@<TRIPOS>SUBSTRUCTURE
     1 SU2         1 TEMP              0 ****  ****    0 ROOT
