@<TRIPOS>MOLECULE
SU4
   45    47     1     0     0
SMALL
bcc


@<TRIPOS>ATOM
      1 O3           0.0000     0.0000     0.0000 o          1 SU4      -0.590300
      2 S            1.4210     0.0000     0.0000 sy         1 SU4       1.057200
      3 O2           2.1980     0.0000     1.1890 o          1 SU4      -0.590300
      4 C7           1.9180    -1.4190    -0.9200 ca         1 SU4      -0.169500
      5 C12          3.1240    -2.0350    -0.6390 ca         1 SU4       0.034500
      6 C11          3.5160    -3.1470    -1.3590 ca         1 SU4      -0.177500
      7 C10          2.7000    -3.6440    -2.3640 ca         1 SU4       0.176100
      8 O4           3.0830    -4.7390    -3.0740 oh         1 SU4      -0.506100
      9 C9           1.4910    -3.0240    -2.6450 ca         1 SU4      -0.177500
     10 C8           1.1000    -1.9160    -1.9180 ca         1 SU4       0.034500
     11 N            1.8880     1.3330    -0.8650 n3         1 SU4      -0.465500
     12 C4           1.0780     1.7940    -1.9950 cx         1 SU4       0.146500
     13 C6           0.3690     3.1420    -1.8520 cx         1 SU4      -0.101900
     14 C5           1.5810     3.0100    -2.7760 cx         1 SU4      -0.101900
     15 C3           3.1110     2.0520    -0.4980 c3         1 SU4       0.179800
     16 C2           4.3140     1.3890    -1.1740 c3         1 SU4       0.202100
     17 C1           4.0660     1.3000    -2.6820 c3         1 SU4      -0.017100
     18 O1           4.4930     0.0750    -0.6430 oh         1 SU4      -0.601800
     19 C13          5.5500     2.2100    -0.9150 ca         1 SU4      -0.129300
     20 C18          6.7870     1.5940    -0.8480 ca         1 SU4      -0.098500
     21 C17          7.9210     2.3470    -0.6090 ca         1 SU4      -0.094000
     22 C16          7.8200     3.7150    -0.4400 ca         1 SU4      -0.096000
     23 C15          6.5840     4.3300    -0.5080 ca         1 SU4      -0.094000
     24 C14          5.4500     3.5780    -0.7510 ca         1 SU4      -0.098500
     25 H12          3.7610    -1.6460     0.1460 ha         1 SU4       0.125500
     26 H8           0.1560    -1.4310    -2.1360 ha         1 SU4       0.125500
     27 H11          4.4600    -3.6300    -1.1390 ha         1 SU4       0.117500
     28 H4           2.7120    -5.5130    -2.6830 ho         1 SU4       0.409000
     29 H9           0.8510    -3.4130    -3.4280 ha         1 SU4       0.117500
     30 HA           0.5450     1.0620    -2.5900 h1         1 SU4       0.069700
     31 H31C         3.2390     2.0220     0.5770 h1         1 SU4       0.046700
     32 H32C         3.0360     3.0820    -0.8250 h1         1 SU4       0.046700
     33 H61C        -0.5910     3.2210    -2.3490 hc         1 SU4       0.052700
     34 H62C         0.5450     3.6670    -0.9210 hc         1 SU4       0.052700
     35 H51C         2.4990     3.4550    -2.4090 hc         1 SU4       0.052700
     36 H52C         1.3630     3.0080    -3.8370 hc         1 SU4       0.052700
     37 H11C         4.0430     2.2980    -3.1030 hc         1 SU4       0.020033
     38 H12C         4.8620     0.7310    -3.1460 hc         1 SU4       0.020033
     39 H13C         3.1170     0.8100    -2.8640 hc         1 SU4       0.020033
     40 H1           5.0500     0.1160     0.1170 ho         1 SU4       0.411000
     41 H18          6.8660     0.5220    -0.9810 ha         1 SU4       0.113500
     42 H14          4.4820     4.0610    -0.8040 ha         1 SU4       0.113500
     43 H17          8.8900     1.8640    -0.5560 ha         1 SU4       0.104000
     44 H16          8.7090     4.3040    -0.2510 ha         1 SU4       0.104000
     45 H15          6.5050     5.4020    -0.3770 ha         1 SU4       0.104000
@<TRIPOS>BOND
     1     1     2 2   
     2     2     3 2   
     3     2     4 1   
     4     2    11 1   
     5     4     5 ar  
     6     4    10 ar  
     7     5     6 ar  
     8     5    25 1   
     9     6     7 ar  
    10     6    27 1   
    11     7     8 1   
    12     7     9 ar  
    13     8    28 1   
    14     9    10 ar  
    15     9    29 1   
    16    10    26 1   
    17    11    12 1   
    18    11    15 1   
    19    12    13 1   
    20    12    14 1   
    21    12    30 1   
    22    13    14 1   
    23    13    33 1   
    24    13    34 1   
    25    14    35 1   
    26    14    36 1   
    27    15    16 1   
    28    15    31 1   
    29    15    32 1   
    30    16    17 1   
    31    16    18 1   
    32    16    19 1   
    33    17    37 1   
    34    17    38 1   
    35    17    39 1   
    36    18    40 1   
    37    19    20 ar  
    38    19    24 ar  
    39    20    21 ar  
    40    20    41 1   
    41    21    22 ar  
    42    21    43 1   
    43    22    23 ar  
    44    22    44 1   
    45    23    24 ar  
    46    23    45 1   
    47    24    42 1   
@<TRIPOS>SUBSTRUCTURE
     1 SU4         1 TEMP              0 ****  ****    0 ROOT
