@<TRIPOS>MOLECULE
molecule
   45    47     1     0     0
SMALL
bcc


@<TRIPOS>ATOM
      1 O3           0.0000     0.0000     0.0000 o          1 SU4      -0.638800
      2 S            1.4210     0.0000     0.0000 sy         1 SU4       1.440200
      3 O2           2.1980     0.0000     1.1890 o          1 SU4      -0.638800
      4 C7           1.9180    -1.4190    -0.9200 ca         1 SU4      -0.319500
      5 C12          3.1240    -2.0350    -0.6390 ca         1 SU4       0.001500
      6 C11          3.5160    -3.1470    -1.3590 ca         1 SU4      -0.184500
      7 C10          2.7000    -3.6440    -2.3640 ca         1 SU4       0.158100
      8 O4           3.0830    -4.7390    -3.0740 oh         1 SU4      -0.526100
      9 C9           1.4910    -3.0240    -2.6450 ca         1 SU4      -0.184500
     10 C8           1.1000    -1.9160    -1.9180 ca         1 SU4       0.001500
     11 N            1.8880     1.3330    -0.8650 n3         1 SU4      -0.775500
     12 C4           1.0780     1.7940    -1.9950 cx         1 SU4       0.174500
     13 C6           0.3690     3.1420    -1.8520 cx         1 SU4      -0.146900
     14 C5           1.5810     3.0100    -2.7760 cx         1 SU4      -0.146900
     15 C3           3.1110     2.0520    -0.4980 c3         1 SU4       0.211800
     16 C2           4.3140     1.3890    -1.1740 c3         1 SU4       0.174100
     17 C1           4.0660     1.3000    -2.6820 c3         1 SU4      -0.078100
     18 O1           4.4930     0.0750    -0.6430 oh         1 SU4      -0.611800
     19 C13          5.5500     2.2100    -0.9150 ca         1 SU4      -0.121300
     20 C18          6.7870     1.5940    -0.8480 ca         1 SU4      -0.123000
     21 C17          7.9210     2.3470    -0.6090 ca         1 SU4      -0.122500
     22 C16          7.8200     3.7150    -0.4400 ca         1 SU4      -0.123000
     23 C15          6.5840     4.3300    -0.5080 ca         1 SU4      -0.122500
     24 C14          5.4500     3.5780    -0.7510 ca         1 SU4      -0.123000
     25 H12          3.7610    -1.6460     0.1460 ha         1 SU4       0.153000
     26 H8           0.1560    -1.4310    -2.1360 ha         1 SU4       0.153000
     27 H11          4.4600    -3.6300    -1.1390 ha         1 SU4       0.143500
     28 H4           2.7120    -5.5130    -2.6830 ho         1 SU4       0.426000
     29 H9           0.8510    -3.4130    -3.4280 ha         1 SU4       0.143500
     30 HA           0.5450     1.0620    -2.5900 h1         1 SU4       0.101700
     31 H31C         3.2390     2.0220     0.5770 h1         1 SU4       0.073200
     32 H32C         3.0360     3.0820    -0.8250 h1         1 SU4       0.073200
     33 H61C        -0.5910     3.2210    -2.3490 hc         1 SU4       0.080700
     34 H62C         0.5450     3.6670    -0.9210 hc         1 SU4       0.080700
     35 H51C         2.4990     3.4550    -2.4090 hc         1 SU4       0.080700
     36 H52C         1.3630     3.0080    -3.8370 hc         1 SU4       0.080700
     37 H11C         4.0430     2.2980    -3.1030 hc         1 SU4       0.049367
     38 H12C         4.8620     0.7310    -3.1460 hc         1 SU4       0.049367
     39 H13C         3.1170     0.8100    -2.8640 hc         1 SU4       0.049367
     40 H1           5.0500     0.1160     0.1170 ho         1 SU4       0.417000
     41 H18          6.8660     0.5220    -0.9810 ha         1 SU4       0.136000
     42 H14          4.4820     4.0610    -0.8040 ha         1 SU4       0.136000
     43 H17          8.8900     1.8640    -0.5560 ha         1 SU4       0.133500
     44 H16          8.7090     4.3040    -0.2510 ha         1 SU4       0.132000
     45 H15          6.5050     5.4020    -0.3770 ha         1 SU4       0.133500
@<TRIPOS>BOND
     1     1     2 2
     2     2     3 2
     3     2     4 1
     4     2    11 1
     5     4     5 ar
     6     4    10 ar
     7     5     6 ar
     8     6     7 ar
     9     7     8 1
    10     7     9 ar
    11     9    10 ar
    12    11    12 1
    13    11    15 1
    14    12    13 1
    15    12    14 1
    16    13    14 1
    17    15    16 1
    18    16    17 1
    19    16    18 1
    20    16    19 1
    21    19    20 ar
    22    19    24 ar
    23    20    21 ar
    24    21    22 ar
    25    22    23 ar
    26    23    24 ar
    27     5    25 1
    28    10    26 1
    29     6    27 1
    30     8    28 1
    31     9    29 1
    32    12    30 1
    33    15    31 1
    34    15    32 1
    35    13    33 1
    36    13    34 1
    37    14    35 1
    38    14    36 1
    39    17    37 1
    40    17    38 1
    41    17    39 1
    42    18    40 1
    43    20    41 1
    44    24    42 1
    45    21    43 1
    46    22    44 1
    47    23    45 1
@<TRIPOS>SUBSTRUCTURE
     1 SU4         1 TEMP              0 ****  ****    0 ROOT
