@<TRIPOS>MOLECULE
SU6
   40    42     1     0     0
SMALL
bcc


@<TRIPOS>ATOM
      1 C1           0.0000     0.0000     0.0000 c          1 SU6       0.979600
      2 N1          -4.0540    -0.6980     4.1480 na         1 SU6       0.455900
      3 O1           1.3420     0.0000     0.0000 o          1 SU6      -0.907300
      4 C2          -0.7540     0.0000     1.3050 c3         1 SU6      -0.133400
      5 N2          -4.1940    -0.1430     8.3750 ns         1 SU6       0.003900
      6 O2          -0.6040     0.0040    -1.0460 o          1 SU6      -0.907300
      7 C3          -2.2580    -0.0000     1.0250 c3         1 SU6       0.068900
      8 O3          -3.2580    -0.8900     6.4310 o          1 SU6      -0.690500
      9 C4          -3.0110     0.0010     2.3310 cc         1 SU6      -0.140300
     10 C5          -3.4090    -1.0960     3.0230 cd         1 SU6      -0.287600
     11 C6          -3.1730    -2.5260     2.6090 c3         1 SU6       0.104200
     12 C7          -3.4220     1.1300     3.0410 cc         1 SU6      -0.087300
     13 C8          -3.1950     2.5670     2.6470 c3         1 SU6       0.093200
     14 C9          -4.0760     0.6810     4.1770 cd         1 SU6      -0.394100
     15 C10         -4.6570     1.4850     5.1800 cf         1 SU6       0.187800
     16 C11         -4.6420     1.0650     6.4970 cc         1 SU6      -0.291400
     17 C12         -3.9430    -0.1000     7.0550 c          1 SU6       0.632700
     18 C13         -5.3220     1.6960     7.6500 ca         1 SU6      -0.061800
     19 C14         -5.0130     0.9090     8.7680 ca         1 SU6      -0.118400
     20 C15         -5.5310     1.2650    10.0090 ca         1 SU6      -0.119000
     21 C16         -6.3350     2.3800    10.1290 ca         1 SU6      -0.092000
     22 C17         -6.6370     3.1550     9.0220 ca         1 SU6      -0.129000
     23 C18         -6.1330     2.8170     7.7820 ca         1 SU6      -0.060000
     24 H1          -4.4510    -1.3030     4.8390 hn         1 SU6       0.126700
     25 H3          -0.4920     0.8850     1.8730 hc         1 SU6       0.008200
     26 H4          -3.8360    -0.8420     8.9950 hn         1 SU6       0.169500
     27 H5          -2.5200     0.8830     0.4560 hc         1 SU6       0.022700
     28 H6          -2.1320    -2.7800     2.7680 hc         1 SU6       0.008033
     29 H7          -3.4180    -2.6440     1.5600 hc         1 SU6       0.008033
     30 H8          -3.7990    -3.1820     3.2020 hc         1 SU6       0.008033
     31 H9          -2.1980     2.8700     2.9440 hc         1 SU6       0.004700
     32 H10         -3.9260     3.1970     3.1410 hc         1 SU6       0.004700
     33 H11         -3.2980     2.6680     1.5740 hc         1 SU6       0.004700
     34 H12         -5.2180     2.3690     4.9030 ha         1 SU6       0.099000
     35 H15         -5.3020     0.6670    10.8830 ha         1 SU6       0.099000
     36 H16         -6.7350     2.6510    11.0980 ha         1 SU6       0.096000
     37 H17         -7.2700     4.0280     9.1290 ha         1 SU6       0.100000
     38 H18         -6.3690     3.4230     6.9150 ha         1 SU6       0.103000
     39 H19         -0.4920    -0.8840     1.8730 hc         1 SU6       0.008200
     40 H20         -2.5200    -0.8860     0.4580 hc         1 SU6       0.022700
@<TRIPOS>BOND
     1     1     3 1   
     2     1     4 1   
     3     1     6 1   
     4     2    10 1   
     5     2    14 1   
     6     2    24 1   
     7     4     7 1   
     8     4    25 1   
     9     4    39 1   
    10     5    17 1   
    11     5    19 1   
    12     5    26 1   
    13     7     9 1   
    14     7    27 1   
    15     7    40 1   
    16     8    17 2   
    17     9    10 2   
    18     9    12 1   
    19    10    11 1   
    20    11    28 1   
    21    11    29 1   
    22    11    30 1   
    23    12    13 1   
    24    12    14 2   
    25    13    31 1   
    26    13    32 1   
    27    13    33 1   
    28    14    15 1   
    29    15    16 2   
    30    15    34 1   
    31    16    17 1   
    32    16    18 1   
    33    18    19 ar  
    34    18    23 ar  
    35    19    20 ar  
    36    20    21 ar  
    37    20    35 1   
    38    21    22 ar  
    39    21    36 1   
    40    22    23 ar  
    41    22    37 1   
    42    23    38 1   
@<TRIPOS>SUBSTRUCTURE
     1 SU6         1 TEMP              0 ****  ****    0 ROOT
