@<TRIPOS>MOLECULE
molecule
   40    42     1     0     0
SMALL
bcc


@<TRIPOS>ATOM
      1 C1           0.0000     0.0000     0.0000 c          1 SU6       0.889600
      2 N1          -4.0540    -0.6980     4.1480 na         1 SU6      -0.121100
      3 O1           1.3420     0.0000     0.0000 o          1 SU6      -0.857800
      4 C2          -0.7540     0.0000     1.3050 c3         1 SU6      -0.178400
      5 N2          -4.1940    -0.1430     8.3750 ns         1 SU6      -0.456100
      6 O2          -0.6040     0.0040    -1.0460 o          1 SU6      -0.857800
      7 C3          -2.2580    -0.0000     1.0250 c3         1 SU6       0.004900
      8 O3          -3.2580    -0.8900     6.4310 o          1 SU6      -0.630500
      9 C4          -3.0110     0.0010     2.3310 cc         1 SU6      -0.146300
     10 C5          -3.4090    -1.0960     3.0230 cd         1 SU6      -0.071600
     11 C6          -3.1730    -2.5260     2.6090 c3         1 SU6      -0.019800
     12 C7          -3.4220     1.1300     3.0410 cc         1 SU6      -0.081300
     13 C8          -3.1950     2.5670     2.6470 c3         1 SU6      -0.019800
     14 C9          -4.0760     0.6810     4.1770 cd         1 SU6      -0.183100
     15 C10         -4.6570     1.4850     5.1800 cf         1 SU6       0.101800
     16 C11         -4.6420     1.0650     6.4970 cc         1 SU6      -0.248400
     17 C12         -3.9430    -0.1000     7.0550 c          1 SU6       0.716700
     18 C13         -5.3220     1.6960     7.6500 ca         1 SU6      -0.078800
     19 C14         -5.0130     0.9090     8.7680 ca         1 SU6       0.044600
     20 C15         -5.5310     1.2650    10.0090 ca         1 SU6      -0.159000
     21 C16         -6.3350     2.3800    10.1290 ca         1 SU6      -0.113000
     22 C17         -6.6370     3.1550     9.0220 ca         1 SU6      -0.157000
     23 C18         -6.1330     2.8170     7.7820 ca         1 SU6      -0.090000
     24 H1          -4.4510    -1.3030     4.8390 hn         1 SU6       0.305700
     25 H3          -0.4920    -0.8840     1.8730 hc         1 SU6       0.032200
     26 H4          -3.8360    -0.8420     8.9950 hn         1 SU6       0.332500
     27 H5          -2.5200     0.8830     0.4560 hc         1 SU6       0.050200
     28 H6          -3.7960    -3.1820     3.2050 hc         1 SU6       0.047700
     29 H7          -3.4210    -2.6450     1.5610 hc         1 SU6       0.047700
     30 H8          -2.1310    -2.7790     2.7640 hc         1 SU6       0.047700
     31 H9          -3.2990     2.6680     1.5740 hc         1 SU6       0.040367
     32 H10         -3.9250     3.1970     3.1410 hc         1 SU6       0.040367
     33 H11         -2.1980     2.8700     2.9440 hc         1 SU6       0.040367
     34 H12         -5.2180     2.3690     4.9030 ha         1 SU6       0.141000
     35 H15         -5.3020     0.6670    10.8830 ha         1 SU6       0.124000
     36 H16         -6.7350     2.6510    11.0980 ha         1 SU6       0.124000
     37 H17         -7.2700     4.0280     9.1290 ha         1 SU6       0.125000
     38 H18         -6.3690     3.4230     6.9150 ha         1 SU6       0.130000
     39 H19         -0.4920     0.8850     1.8730 hc         1 SU6       0.032200
     40 H20         -2.5190    -0.8860     0.4580 hc         1 SU6       0.050200
@<TRIPOS>BOND
     1     6     1 1
     2     3     1 1
     3     1     4 1
     4     4     7 1
     5     7     9 1
     6     9    12 1
     7     9    10 2
     8    13    12 1
     9    11    10 1
    10    12    14 2
    11    10     2 1
    12    14     2 1
    13    14    15 1
    14    15    16 2
    15     8    17 2
    16    16    17 1
    17    16    18 1
    18    17     5 1
    19    18    23 ar
    20    18    19 ar
    21    23    22 ar
    22     5    19 1
    23    19    20 ar
    24    22    21 ar
    25    20    21 ar
    26     2    24 1
    27     4    25 1
    28     5    26 1
    29     7    27 1
    30    11    28 1
    31    11    29 1
    32    11    30 1
    33    13    31 1
    34    13    32 1
    35    13    33 1
    36    15    34 1
    37    20    35 1
    38    21    36 1
    39    22    37 1
    40    23    38 1
    41     4    39 1
    42     7    40 1
@<TRIPOS>SUBSTRUCTURE
     1 SU6         1 TEMP              0 ****  ****    0 ROOT
