@<TRIPOS>MOLECULE
molecule
   24    23     1     0     0
SMALL
bcc


@<TRIPOS>ATOM
      1 CAJ          0.0000     0.0000     0.0000 c          1 SU8       0.919600
      2 CAK          1.5070     0.0000     0.0000 c3         1 SU8      -0.153700
      3 CAL          2.0160     0.0000     1.4440 c3         1 SU8      -0.155400
      4 OAM         -0.6050     0.0050     1.0460 o          1 SU8      -0.868800
      5 CAN          1.6170     1.2870     2.1180 c          1 SU8       0.912600
      6 OAO          1.9590     1.5090     3.3960 o          1 SU8      -0.877300
      7 OAP          0.9890     2.1190     1.5060 o          1 SU8      -0.877300
      8 CAQ          2.0170    -1.2480    -0.7210 c3         1 SU8      -0.052400
      9 CAR          1.6130    -1.1870    -2.1950 c3         1 SU8      -0.096400
     10 CAS          2.1230    -2.4360    -2.9170 c3         1 SU8      -0.088400
     11 CAT          1.7200    -2.3740    -4.3910 c3         1 SU8      -0.088100
     12 OXT         -0.6710    -0.0000    -1.1620 o          1 SU8      -0.868800
     13 HAK          1.8680     0.8850    -0.5100 hc         1 SU8       0.048700
     14 HAL          1.5840    -0.8370     1.9790 hc         1 SU8       0.008700
     15 HALA         3.0960    -0.0890     1.4460 hc         1 SU8       0.008700
     16 HAQ          1.5850    -2.1310    -0.2640 hc         1 SU8       0.001200
     17 HAQA         3.0970    -1.2940    -0.6440 hc         1 SU8       0.001200
     18 HAR          2.0450    -0.3050    -2.6520 hc         1 SU8       0.074200
     19 HARA         0.5330    -1.1420    -2.2720 hc         1 SU8       0.074200
     20 HAS          3.2030    -2.4820    -2.8400 hc         1 SU8       0.015700
     21 HASA         1.6910    -3.3180    -2.4610 hc         1 SU8       0.015700
     22 HAT          0.6450    -2.2580    -4.4660 hc         1 SU8       0.015367
     23 HATA         2.0200    -3.2900    -4.8860 hc         1 SU8       0.015367
     24 HATB         2.2080    -1.5310    -4.8640 hc         1 SU8       0.015367
@<TRIPOS>BOND
     1     2     1 1
     2     4     1 1
     3     1    12 1
     4     3     2 1
     5     8     2 1
     6     2    13 1
     7     5     3 1
     8     3    14 1
     9     3    15 1
    10     7     5 1
    11     5     6 1
    12     8     9 1
    13     8    16 1
    14     8    17 1
    15    10     9 1
    16     9    18 1
    17     9    19 1
    18    11    10 1
    19    10    20 1
    20    10    21 1
    21    11    22 1
    22    11    23 1
    23    11    24 1
@<TRIPOS>SUBSTRUCTURE
     1 SU8         1 TEMP              0 ****  ****    0 ROOT
