@<TRIPOS>MOLECULE
SU8
   24    23     1     0     0
SMALL
bcc


@<TRIPOS>ATOM
      1 CAJ        -0.5510   -0.6020    0.0630 c         1 SU8      0.903600
      2 CAK         0.8790   -0.0250    0.0390 c3        1 SU8     -0.144700
      3 CAL         1.3700    0.3390    1.4290 c3        1 SU8     -0.154400
      4 OAM        -0.9150   -1.3830    0.9930 o         1 SU8     -0.882800
      5 CAN         2.6880    1.1160    1.4430 c         1 SU8      0.897600
      6 OAO         3.7920    0.4880    1.3630 o         1 SU8     -0.888800
      7 OAP         2.6620    2.3790    1.5850 o         1 SU8     -0.888800
      8 CAQ         1.8130   -1.0340   -0.6140 c3        1 SU8     -0.067400
      9 CAR         1.5750   -1.1170   -2.1080 c3        1 SU8     -0.085400
     10 CAS         2.3260   -2.2760   -2.7290 c3        1 SU8     -0.078400
     11 CAT         2.1240   -2.3400   -4.2210 c3        1 SU8     -0.084100
     12 OXT        -1.3370   -0.2950   -0.8900 o         1 SU8     -0.882800
     13 HAK         0.8580    0.9080   -0.5880 hc        1 SU8      0.035700
     14 HAL         1.4960   -0.6010    2.0250 hc        1 SU8      0.024700
     15 HALA        0.5840    0.9600    1.9290 hc        1 SU8      0.024700
     16 HAQ         2.8770   -0.7390   -0.4040 hc        1 SU8      0.044700
     17 HAQA        1.6410   -2.0400   -0.1480 hc        1 SU8      0.044700
     18 HAR         1.9030   -0.1600   -2.5920 hc        1 SU8      0.047200
     19 HARA        0.4710   -1.2220   -2.2920 hc        1 SU8      0.047200
     20 HAS         3.4200   -2.1780   -2.5010 hc        1 SU8      0.025700
     21 HASA        1.9770   -3.2350   -2.2630 hc        1 SU8      0.025700
     22 HAT         1.0380   -2.4440   -4.4630 hc        1 SU8      0.011700
     23 HATA        2.6690   -3.2100   -4.6600 hc        1 SU8      0.011700
     24 HATB        2.5000   -1.4080   -4.7080 hc        1 SU8      0.011700
@<TRIPOS>BOND
     1    1    2 1   
     2    1    4 1   
     3    1   12 1   
     4    2    3 1   
     5    2    8 1   
     6    2   13 1   
     7    3    5 1   
     8    3   14 1   
     9    3   15 1   
    10    5    6 1   
    11    5    7 1   
    12    8    9 1   
    13    8   16 1   
    14    8   17 1   
    15    9   10 1   
    16    9   18 1   
    17    9   19 1   
    18   10   11 1   
    19   10   20 1   
    20   10   21 1   
    21   11   22 1   
    22   11   23 1   
    23   11   24 1   
@<TRIPOS>SUBSTRUCTURE
     1 SU8         1 TEMP              0 ****  ****    0 ROOT
