@<TRIPOS>MOLECULE
SU9
   29    31     1     0     0
SMALL
bcc


@<TRIPOS>ATOM
      1 N5'          0.0000     0.0000     0.0000 na         1 SU9       0.321100
      2 C4'          1.3460     0.0000     0.0000 cc         1 SU9       0.223400
      3 N3'          1.7810     0.0000     1.2350 nd         1 SU9      -0.631000
      4 C2'          0.7510     0.0070     2.0780 cd         1 SU9       0.374200
      5 C1'         -0.4080     0.0020     1.3210 cc         1 SU9      -0.466400
      6 C6'         -1.7360     0.0030     1.7990 ce         1 SU9       0.145800
      7 C9          -2.7110     0.7120     1.1290 cd         1 SU9      -0.228400
      8 C8          -2.5280     1.6280    -0.0060 c          1 SU9       0.627700
      9 O10         -1.4690     1.9060    -0.5370 o          1 SU9      -0.703500
     10 N7          -3.7340     2.1040    -0.3540 ns         1 SU9       0.018900
     11 C5          -4.7380     1.5850     0.4580 ca         1 SU9      -0.154400
     12 C6          -6.1140     1.7860     0.4720 ca         1 SU9      -0.065000
     13 C1          -6.9010     1.1370     1.4010 ca         1 SU9      -0.195000
     14 C2          -6.3320     0.2760     2.3300 ca         1 SU9       0.119100
     15 O11         -7.1190    -0.3590     3.2390 os         1 SU9      -0.280900
     16 C12         -8.4620     0.0590     2.9860 c3         1 SU9       0.216700
     17 C3          -4.9640     0.0690     2.3340 ca         1 SU9      -0.091000
     18 C4          -4.1660     0.7160     1.3960 ca         1 SU9      -0.050800
     19 H5'         -0.5940    -0.0020    -0.8050 hn         1 SU9       0.142700
     20 H4'          1.9710    -0.0030    -0.8840 h5         1 SU9       0.022100
     21 H2'          0.8090     0.0090     3.1600 h4         1 SU9       0.002100
     22 H6'         -2.0100    -0.6420     2.6250 ha         1 SU9       0.110000
     23 HN7         -3.8910     2.7510    -1.1020 hn         1 SU9       0.175500
     24 H6          -6.5690     2.4550    -0.2490 ha         1 SU9       0.104000
     25 H1          -7.9720     1.3000     1.4050 ha         1 SU9       0.135000
     26 H121        -9.1290    -0.4240     3.6900 h1         1 SU9       0.003033
     27 H122        -8.7420    -0.2160     1.9760 h1         1 SU9       0.003033
     28 H123        -8.5330     1.1340     3.1000 h1         1 SU9       0.003033
     29 H3          -4.5180    -0.6020     3.0580 ha         1 SU9       0.118000
@<TRIPOS>BOND
     1     1     2 1   
     2     1     5 1   
     3     1    19 1   
     4     2     3 2   
     5     2    20 1   
     6     3     4 1   
     7     4     5 2   
     8     4    21 1   
     9     5     6 1   
    10     6     7 2   
    11     6    22 1   
    12     7     8 1   
    13     7    18 1   
    14     8     9 2   
    15     8    10 1   
    16    10    11 1   
    17    10    23 1   
    18    11    12 ar  
    19    11    18 ar  
    20    12    13 ar  
    21    12    24 1   
    22    13    14 ar  
    23    13    25 1   
    24    14    15 1   
    25    14    17 ar  
    26    15    16 1   
    27    16    26 1   
    28    16    27 1   
    29    16    28 1   
    30    17    18 ar  
    31    17    29 1   
@<TRIPOS>SUBSTRUCTURE
     1 SU9         1 TEMP              0 ****  ****    0 ROOT
