@<TRIPOS>MOLECULE
SUA
   36    37     1     0     0
SMALL
bcc


@<TRIPOS>ATOM
      1 S1           0.0000     0.0000     0.0000 sy         1 SUA       0.932200
      2 O1           1.4210     0.0000     0.0000 o          1 SUA      -0.492800
      3 O2          -0.7780     0.0000     1.1900 o          1 SUA      -0.492800
      4 N1          -0.4680     1.3320    -0.8650 nz         1 SUA      -0.134500
      5 C1          -0.0240    -3.0870    -2.5710 ca         1 SUA      -0.096000
      6 C2           0.3620    -1.9750    -1.8490 ca         1 SUA       0.017500
      7 C3          -0.4970    -1.4190    -0.9190 ca         1 SUA      -0.227500
      8 C4          -1.7450    -1.9760    -0.7080 ca         1 SUA       0.017500
      9 C5          -2.1380    -3.0880    -1.4260 ca         1 SUA      -0.096000
     10 C6          -1.2780    -3.6480    -2.3600 ca         1 SUA      -0.018400
     11 N2          -1.6720    -4.7740    -3.0910 ns         1 SUA       0.093900
     12 C7          -0.7990    -5.7790    -3.3060 cs         1 SUA       0.455500
     13 S2           0.7460    -5.7410    -2.5680 s          1 SUA      -0.638400
     14 O3          -1.1420    -6.8110    -4.1010 os         1 SUA      -0.336900
     15 C8          -0.1510    -7.8560    -4.2880 c3         1 SUA       0.209400
     16 C9          -0.7170    -8.9340    -5.2150 c3         1 SUA       0.043900
     17 C10          0.3120   -10.0190    -5.4080 cc         1 SUA      -0.129300
     18 C11          0.3910   -11.1250    -4.5790 cc         1 SUA      -0.129000
     19 C12          1.3570   -11.9920    -4.8890 cd         1 SUA       0.021900
     20 S3           2.2370   -11.4140    -6.2990 ss         1 SUA      -0.253800
     21 C13          1.2090    -9.9890    -6.3930 cd         1 SUA       0.009900
     22 HN11        -1.4620     1.3200    -0.9840 hn         1 SUA       0.313133
     23 HN12        -0.2020     2.1610    -0.3710 hn         1 SUA       0.313133
     24 H41         -2.4130    -1.5430     0.0270 ha         1 SUA       0.129000
     25 H51         -3.1320    -3.4960    -1.2920 ha         1 SUA       0.149500
     26 HN21        -2.5990    -4.8290    -3.4640 hn         1 SUA       0.176500
     27 H81          0.0940    -8.2960    -3.3290 h1         1 SUA       0.043200
     28 H82          0.7420    -7.4320    -4.7300 h1         1 SUA       0.043200
     29 H91         -1.6100    -9.3580    -4.7730 hc         1 SUA       0.027200
     30 H92         -0.9620    -8.4940    -6.1740 hc         1 SUA       0.027200
     31 H111        -0.2800   -11.2760    -3.7420 ha         1 SUA       0.124000
     32 H121         1.5690   -12.9100    -4.3540 h4         1 SUA       0.153000
     33 H131         1.2960    -9.2050    -7.1360 h4         1 SUA       0.150000
     34 H11          0.6200    -3.4760    -3.3500 ha         1 SUA       0.149500
     35 H13         -0.0120     1.3300    -1.7550 hn         1 SUA       0.313133
     36 H21          1.3410    -1.5400    -2.0090 ha         1 SUA       0.129000
@<TRIPOS>BOND
     1     1     2 2   
     2     1     3 2   
     3     1     4 1   
     4     1     7 1   
     5     4    22 1   
     6     4    23 1   
     7     4    35 1   
     8     5     6 ar  
     9     5    10 ar  
    10     5    34 1   
    11     6     7 ar  
    12     6    36 1   
    13     7     8 ar  
    14     8     9 ar  
    15     8    24 1   
    16     9    10 ar  
    17     9    25 1   
    18    10    11 1   
    19    11    12 1   
    20    11    26 1   
    21    12    13 2   
    22    12    14 1   
    23    14    15 1   
    24    15    16 1   
    25    15    27 1   
    26    15    28 1   
    27    16    17 1   
    28    16    29 1   
    29    16    30 1   
    30    17    18 1   
    31    17    21 2   
    32    18    19 2   
    33    18    31 1   
    34    19    20 1   
    35    19    32 1   
    36    20    21 1   
    37    21    33 1   
@<TRIPOS>SUBSTRUCTURE
     1 SUA         1 TEMP              0 ****  ****    0 ROOT
