@<TRIPOS>MOLECULE
molecule
   24    23     1     0     0
SMALL
bcc


@<TRIPOS>ATOM
      1 P1           0.0000     0.0000     0.0000 p5         1 SUF       1.092700
      2 P2           0.5160     3.1450    -0.0110 p5         1 SUF       1.092700
      3 S           -2.9640     0.6980    -1.1720 s6         1 SUF      -0.661200
      4 O1          -0.0890     4.3440    -0.9100 o          1 SUF      -0.942667
      5 O2          -0.1780     1.6480    -1.9510 oh         1 SUF      -0.685800
      6 O3          -0.0700     3.4710     1.4610 o          1 SUF      -0.942667
      7 O4           1.6170     0.0000     0.0000 o          1 SUF      -0.942667
      8 O5          -0.3670     0.0000     1.5760 o          1 SUF      -0.942667
      9 C1          -0.4520     1.6870    -0.5430 c3         1 SUF      -0.098600
     10 O6          -0.6390    -1.1060    -0.7850 o          1 SUF      -0.942667
     11 C2          -1.9590     1.9420    -0.4420 c3         1 SUF       0.131400
     12 O7           2.0040     2.9760    -0.0790 o          1 SUF      -0.942667
     13 C3          -4.6420     1.1530    -0.8450 c3         1 SUF      -0.034300
     14 C4          -2.7510     0.8430    -2.9210 c3         1 SUF      -0.034300
     15 HS          -2.6720    -0.5170    -0.7250 hs         1 SUF       0.241800
     16 HO2          0.7510     1.7170    -2.0930 ho         1 SUF       0.382000
     17 H21         -2.2230     2.0240     0.6050 h1         1 SUF       0.076200
     18 H22         -2.1780     2.8860    -0.9260 h1         1 SUF       0.076200
     19 H31         -5.3080     0.4350    -1.3080 h1         1 SUF       0.012700
     20 H32         -4.8350     2.1380    -1.2510 h1         1 SUF       0.012700
     21 H33         -4.8110     1.1640     0.2250 h1         1 SUF       0.012700
     22 H41         -2.5950     1.8830    -3.1810 h1         1 SUF       0.012700
     23 H42         -1.8910     0.2610    -3.2300 h1         1 SUF       0.012700
     24 H43         -3.6360     0.4740    -3.4250 h1         1 SUF       0.012700
@<TRIPOS>BOND
     1     1    10 1
     2     1     7 1
     3     1     8 1
     4     1     9 1
     5     2     9 1
     6     2    12 1
     7     2     4 1
     8     2     6 1
     9     3    11 1
    10     3    14 1
    11     3    13 1
    12     3    15 1
    13     5     9 1
    14     5    16 1
    15     9    11 1
    16    11    17 1
    17    11    18 1
    18    13    19 1
    19    13    20 1
    20    13    21 1
    21    14    22 1
    22    14    23 1
    23    14    24 1
@<TRIPOS>SUBSTRUCTURE
     1 SUF         1 TEMP              0 ****  ****    0 ROOT
