@<TRIPOS>MOLECULE
SUF
   24    23     1     0     0
SMALL
bcc


@<TRIPOS>ATOM
      1 P1         -0.4240    0.2170    1.1190 p5        1 SUF      1.252200
      2 P2          0.4520    3.0300   -0.8050 p5        1 SUF      1.252200
      3 S          -2.7790    1.0980   -1.7810 s6        1 SUF     -0.607200
      4 O1         -0.3260    3.5070   -2.0370 o         1 SUF     -0.983833
      5 O2          0.0520    0.6070   -1.3180 oh        1 SUF     -0.672800
      6 O3          0.3880    4.1140    0.2570 o         1 SUF     -0.983833
      7 O4          0.8520   -0.6000    0.9830 o         1 SUF     -0.983833
      8 O5         -0.5590    0.8680    2.4850 o         1 SUF     -0.983833
      9 C1         -0.4150    1.4680   -0.2620 c3        1 SUF     -0.190600
     10 O6         -1.6620   -0.6480    0.8620 o         1 SUF     -0.983833
     11 C2         -1.8620    1.8040   -0.4320 c3        1 SUF      0.143400
     12 O7          1.8770    2.6480   -1.1720 o         1 SUF     -0.983833
     13 C3         -4.0310    0.0330   -1.0940 c3        1 SUF     -0.123800
     14 C4         -3.1500    2.4030   -2.9340 c3        1 SUF     -0.123800
     15 HS         -1.9400    0.3140   -2.3930 hs        1 SUF      0.260800
     16 HO2         0.9760    0.4680   -1.0600 ho        1 SUF      0.419000
     17 H21        -2.4180    1.5010    0.4980 h1        1 SUF      0.054700
     18 H22        -1.9720    2.9180   -0.5480 h1        1 SUF      0.054700
     19 H31        -3.5090   -0.5320   -0.2770 h1        1 SUF      0.030367
     20 H32        -4.8620    0.6370   -0.6780 h1        1 SUF      0.030367
     21 H33        -4.4330   -0.6550   -1.8640 h1        1 SUF      0.030367
     22 H41        -2.2280    3.0440   -2.9610 h1        1 SUF      0.030367
     23 H42        -4.0180    2.9910   -2.5770 h1        1 SUF      0.030367
     24 H43        -3.3800    1.9940   -3.9390 h1        1 SUF      0.030367
@<TRIPOS>BOND
     1    1    7 1   
     2    1    8 1   
     3    1    9 1   
     4    1   10 1   
     5    2    4 1   
     6    2    6 1   
     7    2    9 1   
     8    2   12 1   
     9    3   11 1   
    10    3   13 1   
    11    3   14 1   
    12    3   15 1   
    13    5    9 1   
    14    5   16 1   
    15    9   11 1   
    16   11   17 1   
    17   11   18 1   
    18   13   19 1   
    19   13   20 1   
    20   13   21 1   
    21   14   22 1   
    22   14   23 1   
    23   14   24 1   
@<TRIPOS>SUBSTRUCTURE
     1 SUF         1 TEMP              0 ****  ****    0 ROOT
