@<TRIPOS>MOLECULE
SUG
   36    35     1     0     0
SMALL
bcc


@<TRIPOS>ATOM
      1 O2           0.0000     0.0000     0.0000 o          1 SUG      -0.873800
      2 N            3.5360     0.0000    -1.0380 ns         1 SUG      -0.204900
      3 CA           2.0960     0.0000    -1.3060 c3         1 SUG      -0.003300
      4 CB           1.7260    -1.2490    -2.1080 c3         1 SUG      -0.264400
      5 CG           2.3930    -1.1880    -3.4840 c3         1 SUG       0.015600
      6 CD           2.0240    -2.4370    -4.2860 c3         1 SUG       0.151800
      7 NE           2.6620    -2.3780    -5.6030 nu         1 SUG      -0.460200
      8 CZ           2.4730    -3.3980    -6.5040 c2         1 SUG       0.239100
      9 NH1          1.7260    -4.4180    -6.1880 n2         1 SUG      -0.677100
     10 NH2          3.0720    -3.3440    -7.7410 nz         1 SUG       0.196400
     11 C            1.3420     0.0000     0.0000 c          1 SUG       0.969600
     12 O            1.9460     0.0000     1.0460 o          1 SUG      -0.873800
     13 CW           5.6610     1.1630    -0.5400 c3         1 SUG      -0.081400
     14 CX           6.1400     2.6000    -0.3230 c3         1 SUG      -0.119400
     15 CY           7.6210     2.6010    -0.0490 c          1 SUG       0.980600
     16 OD1          8.2620     3.7590     0.1740 o          1 SUG      -0.917800
     17 OD2          8.2320     1.5590    -0.0280 o          1 SUG      -0.917800
     18 OXT          3.5660     2.2090    -0.8350 o          1 SUG      -0.662100
     19 HN           4.0330    -0.8660    -0.9800 hn         1 SUG       0.164500
     20 HA           1.8340     0.8850    -1.8740 h1         1 SUG       0.031700
     21 HB1          1.3950    -0.2720    -2.4380 hc         1 SUG       0.099700
     22 HB2          0.7910    -1.7770    -1.9650 hc         1 SUG       0.099700
     23 HG1          2.0510    -0.3060    -4.0120 hc         1 SUG       0.011700
     24 HG2          3.4680    -1.1420    -3.3620 hc         1 SUG       0.011700
     25 HD1          2.3650    -3.3190    -3.7580 h1         1 SUG       0.035700
     26 HD2A         0.9480    -2.4830    -4.4080 h1         1 SUG       0.035700
     27 HNE          3.2450    -1.6010    -5.8430 hn         1 SUG       0.306800
     28 HH1          1.2880    -4.4610    -5.2890 hn         1 SUG       0.394400
     29 HH21         2.7620    -2.5250    -8.2260 hn         1 SUG       0.216800
     30 HH22         4.0660    -3.3080    -7.6290 hn         1 SUG       0.216800
     31 HW1          6.1850     0.7310    -1.3840 hc         1 SUG       0.026200
     32 HW2          5.8630     0.5780     0.3490 hc         1 SUG       0.026200
     33 HX1          5.6160     3.0320     0.5210 hc         1 SUG       0.020700
     34 HX2          5.9370     3.1860    -1.2120 hc         1 SUG       0.020700
     35 HH23         2.8320    -4.1620    -8.2640 hn         1 SUG       0.216800
     36 CV           4.1800     1.1630    -0.8150 c          1 SUG       0.570100
@<TRIPOS>BOND
     1     1    11 1   
     2     2     3 1   
     3     2    19 1   
     4     2    36 1   
     5     3     4 1   
     6     3    11 1   
     7     3    20 1   
     8     4     5 1   
     9     4    21 1   
    10     4    22 1   
    11     5     6 1   
    12     5    23 1   
    13     5    24 1   
    14     6     7 1   
    15     6    25 1   
    16     6    26 1   
    17     7     8 1   
    18     7    27 1   
    19     8     9 2   
    20     8    10 1   
    21     9    28 1   
    22    10    29 1   
    23    10    30 1   
    24    10    35 1   
    25    11    12 1   
    26    13    14 1   
    27    13    31 1   
    28    13    32 1   
    29    13    36 1   
    30    14    15 1   
    31    14    33 1   
    32    14    34 1   
    33    15    16 1   
    34    15    17 1   
    35    18    36 2   
@<TRIPOS>SUBSTRUCTURE
     1 SUG         1 TEMP              0 ****  ****    0 ROOT
