@<TRIPOS>MOLECULE
molecule
   15    14     1     0     0
SMALL
bcc


@<TRIPOS>ATOM
      1 OAG          0.0000     0.0000     0.0000 o          1 SUH      -0.892300
      2 CAJ          1.3420     0.0000     0.0000 c          1 SUH       0.886600
      3 CAK          2.0950     0.0000     1.3060 c3         1 SUH      -0.154400
      4 CAL          3.5990    -0.0010     1.0270 c3         1 SUH      -0.149700
      5 CAM          4.3510     0.1230     2.3270 c          1 SUH       0.892600
      6 OAN          3.7460     0.2030     3.3700 o          1 SUH      -0.889800
      7 OAO          5.6930     0.1440     2.3270 o          1 SUH      -0.889800
      8 OAP          1.9470     0.0000    -1.0460 o          1 SUH      -0.892300
      9 CAQ          3.9890    -1.3080     0.3340 c3         1 SUH      -0.048100
     10 HAK          1.8330    -0.8840     1.8740 hc         1 SUH       0.031700
     11 HAKA         1.8340     0.8850     1.8740 hc         1 SUH       0.031700
     12 HAL          3.8480     0.8360     0.3850 hc         1 SUH       0.044700
     13 HAQ          3.1470    -1.9890     0.3470 hc         1 SUH       0.010033
     14 HAQA         4.2730    -1.1030    -0.6910 hc         1 SUH       0.010033
     15 HAQB         4.8250    -1.7580     0.8570 hc         1 SUH       0.010033
@<TRIPOS>BOND
     1     2     1 1
     2     3     2 1
     3     2     8 1
     4     4     3 1
     5     3    10 1
     6     3    11 1
     7     5     4 1
     8     4     9 1
     9     4    12 1
    10     6     5 1
    11     7     5 1
    12     9    13 1
    13     9    14 1
    14     9    15 1
@<TRIPOS>SUBSTRUCTURE
     1 SUH         1 TEMP              0 ****  ****    0 ROOT
