@<TRIPOS>MOLECULE
SUH
   15    14     1     0     0
SMALL
bcc


@<TRIPOS>ATOM
      1 OAG         0.9000   -0.5460   -0.6250 o         1 SUH     -0.889800
      2 CAJ         1.5670    0.4730   -0.2560 c         1 SUH      0.897600
      3 CAK         2.3330    0.4450    1.0680 c3        1 SUH     -0.153400
      4 CAL         3.6770   -0.2580    0.9960 c3        1 SUH     -0.146700
      5 CAM         4.4900   -0.0630    2.2910 c         1 SUH      0.904600
      6 OAN         4.0120   -0.4310    3.4080 o         1 SUH     -0.885300
      7 OAO         5.6540    0.4430    2.2040 o         1 SUH     -0.885300
      8 OAP         1.5660    1.5400   -0.9480 o         1 SUH     -0.889800
      9 CAQ         3.5000   -1.7390    0.7360 c3        1 SUH     -0.073100
     10 HAK         2.5010    1.5010    1.4020 hc        1 SUH      0.022200
     11 HAKA        1.7000   -0.0650    1.8390 hc        1 SUH      0.022200
     12 HAL         4.2660    0.1930    0.1510 hc        1 SUH      0.031700
     13 HAQ         2.7620   -1.8970   -0.0890 hc        1 SUH      0.015033
     14 HAQA        4.4740   -2.2070    0.4560 hc        1 SUH      0.015033
     15 HAQB        3.1210   -2.2420    1.6590 hc        1 SUH      0.015033
@<TRIPOS>BOND
     1    1    2 1   
     2    2    3 1   
     3    2    8 1   
     4    3    4 1   
     5    3   10 1   
     6    3   11 1   
     7    4    5 1   
     8    4    9 1   
     9    4   12 1   
    10    5    6 1   
    11    5    7 1   
    12    9   13 1   
    13    9   14 1   
    14    9   15 1   
@<TRIPOS>SUBSTRUCTURE
     1 SUH         1 TEMP              0 ****  ****    0 ROOT
