@<TRIPOS>MOLECULE
molecule
   32    32     1     0     0
SMALL
bcc


@<TRIPOS>ATOM
      1 N            0.0000     0.0000     0.0000 nz         1 SUJ      -0.797600
      2 CA           1.4620     0.0000     0.0000 c3         1 SUJ       0.014500
      3 C1           1.9380     0.0000     1.4520 c          1 SUJ       0.685500
      4 O1           1.2920    -0.5970     2.3190 o          1 SUJ      -0.571500
      5 CB           1.9680     1.1680    -0.8360 c3         1 SUJ      -0.096400
      6 CG           3.4760     1.2700    -0.6870 c3         1 SUJ      -0.104400
      7 CD           3.8160     1.5400     0.7710 c3         1 SUJ       0.308500
      8 OD           3.4180     2.8650     1.1200 oh         1 SUJ      -0.611800
      9 N2           3.1730     0.6080     1.6990 n          1 SUJ      -0.406800
     10 C2           3.7570     0.5260     3.0330 c3         1 SUJ       0.015700
     11 C3           2.8540     1.1150     4.1200 c3         1 SUJ       0.125100
     12 C4           3.4840     1.0570     5.5070 c3         1 SUJ      -0.119100
     13 O3           2.5300     2.4720     3.8190 oh         1 SUJ      -0.624800
     14 C            4.0540    -0.9380     3.3030 c          1 SUJ       0.873600
     15 O            5.3860    -1.1690     3.4440 o          1 SUJ      -0.806800
     16 OXT          3.2120    -1.8180     3.4250 o          1 SUJ      -0.806800
     17 HN1         -0.3340     0.7950     0.5080 hn         1 SUJ       0.453800
     18 HN2         -0.3340     0.0420    -0.9430 hn         1 SUJ       0.453800
     19 HA           1.8050    -0.9170    -0.4640 hx         1 SUJ       0.124700
     20 HBC1         1.7180     1.0010    -1.8770 hc         1 SUJ       0.061200
     21 HBC2         1.5080     2.0850    -0.4910 hc         1 SUJ       0.061200
     22 HGC1         3.8450     2.0820    -1.3010 hc         1 SUJ       0.074200
     23 HGC2         3.9330     0.3380    -0.9970 hc         1 SUJ       0.074200
     24 H0           4.8900     1.4560     0.8920 h2         1 SUJ       0.082700
     25 HD           4.1150     3.4670     0.9180 ho         1 SUJ       0.415000
     26 H2           4.6930     1.0720     3.0310 h1         1 SUJ       0.086700
     27 H3           1.9340     0.5440     4.1420 h1         1 SUJ       0.049700
     28 H4C1         4.4510     0.5730     5.4440 hc         1 SUJ       0.048700
     29 H4C2         2.8410     0.4920     6.1720 hc         1 SUJ       0.048700
     30 H4C3         3.6070     2.0620     5.8910 hc         1 SUJ       0.048700
     31 HB           1.8200     2.7560     4.3720 ho         1 SUJ       0.388000
     32 HN3         -0.3340    -0.8380     0.4340 hn         1 SUJ       0.453800
@<TRIPOS>BOND
     1     1     2 1
     2     1    17 1
     3     1    18 1
     4     2     3 1
     5     2     5 1
     6     2    19 1
     7     3     4 2
     8     3     9 1
     9     5     6 1
    10     5    20 1
    11     5    21 1
    12     6     7 1
    13     6    22 1
    14     6    23 1
    15     7     8 1
    16     7     9 1
    17     7    24 1
    18     8    25 1
    19     9    10 1
    20    10    11 1
    21    10    14 1
    22    10    26 1
    23    11    12 1
    24    11    13 1
    25    11    27 1
    26    12    28 1
    27    12    29 1
    28    12    30 1
    29    13    31 1
    30    14    15 1
    31    14    16 1
    32    32     1 1
@<TRIPOS>SUBSTRUCTURE
     1 SUJ         1 TEMP              0 ****  ****    0 ROOT
