@<TRIPOS>MOLECULE
SUL
    5     4     1     0     0
SMALL
bcc


@<TRIPOS>ATOM
      1 S           0.0000    0.0000    0.0000 s6        1 SUL      1.542800
      2 O1          0.0010   -1.1950   -0.8450 o         1 SUL     -0.885200
      3 O2         -0.0010    1.1950   -0.8450 o         1 SUL     -0.885200
      4 O3         -1.1950   -0.0010    0.8450 o         1 SUL     -0.885200
      5 O4          1.1950    0.0010    0.8450 o         1 SUL     -0.885200
@<TRIPOS>BOND
     1    1    2 1   
     2    1    3 1   
     3    1    4 1   
     4    1    5 1   
@<TRIPOS>SUBSTRUCTURE
     1 SUL         1 TEMP              0 ****  ****    0 ROOT
