@<TRIPOS>MOLECULE
molecule
   69    70     1     0     0
SMALL
bcc


@<TRIPOS>ATOM
      1 C1           0.0000     0.0000     0.0000 c3         1 SUM       0.314900
      2 C2           1.5300     0.0000     0.0000 c3         1 SUM       0.128100
      3 C3           2.0300     0.0000     1.4460 c3         1 SUM       0.105100
      4 C4           1.3800     1.1730     2.1890 c3         1 SUM       0.108100
      5 C5          -0.1390     1.0850     2.0250 c3         1 SUM       0.133100
      6 C6          -0.7990     2.2330     2.7910 c3         1 SUM       0.153400
      7 O1          -0.4770    -1.1510     0.6990 os         1 SUM      -0.365600
      8 O2           2.0080    -1.1680    -0.6710 oh         1 SUM      -0.573800
      9 O3           3.4510     0.1500     1.4660 oh         1 SUM      -0.617800
     10 O4           1.7150     1.1070     3.5770 oh         1 SUM      -0.599800
     11 O5          -0.4820     1.1780     0.6430 os         1 SUM      -0.406600
     12 O6          -2.2190     2.0830     2.7440 oh         1 SUM      -0.584800
     13 C11         -2.6570    -0.2380     0.1740 c3         1 SUM       0.096400
     14 C12         -1.7530    -1.4720     0.1460 c3         1 SUM       0.336600
     15 C13         -1.5900    -1.9690    -1.3050 c3         1 SUM       0.063100
     16 C14         -2.2130    -3.3880    -1.2940 c3         1 SUM       0.077100
     17 C15         -3.1190    -3.3330    -0.0380 c3         1 SUM       0.132100
     18 O11         -2.9650     0.0960     1.5280 oh         1 SUM      -0.554800
     19 O13         -0.2080    -2.0260    -1.6600 oh         1 SUM      -0.565800
     20 O14         -2.9830    -3.6160    -2.4760 oh         1 SUM      -0.602800
     21 O15         -2.3580    -2.5390     0.8960 os         1 SUM      -0.345600
     22 C21         -4.2210    -4.6520     1.7740 c3         1 SUM       0.151100
     23 C22         -4.5590    -6.0630     2.2610 c3         1 SUM      -0.105400
     24 C23         -5.5070    -5.9770     3.4580 c3         1 SUM      -0.083400
     25 C24         -5.8440    -7.3870     3.9450 c3         1 SUM      -0.080400
     26 C25         -6.7930    -7.3020     5.1410 c3         1 SUM      -0.082400
     27 C26         -7.1300    -8.7130     5.6270 c3         1 SUM      -0.081400
     28 C27         -8.0780    -8.6270     6.8240 c3         1 SUM      -0.084400
     29 C28         -8.4150   -10.0380     7.3110 c3         1 SUM      -0.092100
     30 O21         -3.5110    -3.9530     2.7960 oh         1 SUM      -0.581800
     31 CM          -3.3550    -4.7390     0.5180 c3         1 SUM      -0.076400
     32 H1          -0.3580    -0.0210    -1.0220 h2         1 SUM       0.089700
     33 H2           1.8910     0.8870    -0.5060 h1         1 SUM       0.054700
     34 H3           1.7520    -0.9310     1.9250 h1         1 SUM       0.084700
     35 H4           1.7340     2.1060     1.7700 h1         1 SUM       0.045700
     36 H5          -0.4870     0.1370     2.4170 h1         1 SUM       0.107700
     37 H61         -0.4680     2.2160     3.8230 h1         1 SUM       0.028200
     38 H62         -0.5200     3.1770     2.3380 h1         1 SUM       0.028200
     39 HO2          2.7500    -0.9410    -1.2080 ho         1 SUM       0.399000
     40 HO3          3.8400    -0.5910     1.9000 ho         1 SUM       0.413000
     41 HO4          2.4030     1.7240     3.7640 ho         1 SUM       0.407000
     42 HO6         -2.6230     2.7310     3.2970 ho         1 SUM       0.388000
     43 H111        -3.5740    -0.4500    -0.3630 h1         1 SUM       0.043200
     44 H112        -2.1470     0.5940    -0.2970 h1         1 SUM       0.043200
     45 H13         -2.1340    -1.3260    -1.9850 h1         1 SUM       0.056700
     46 H14         -1.4430    -4.1420    -1.1770 h1         1 SUM       0.073700
     47 H15         -4.0580    -2.8470    -0.2700 h1         1 SUM       0.055700
     48 HO11        -3.8840     0.2950     1.6020 ho         1 SUM       0.395000
     49 HO13        -0.1250    -2.2940    -2.5600 ho         1 SUM       0.399000
     50 HO14        -2.5760    -4.2940    -2.9900 ho         1 SUM       0.407000
     51 H21         -5.1370    -4.1210     1.5440 h1         1 SUM       0.026700
     52 H221        -5.0350    -6.6160     1.4610 hc         1 SUM       0.049700
     53 H222        -3.6480    -6.5690     2.5570 hc         1 SUM       0.049700
     54 H231        -6.4180    -5.4710     3.1610 hc         1 SUM       0.042700
     55 H232        -5.0300    -5.4230     4.2570 hc         1 SUM       0.042700
     56 H241        -4.9340    -7.8940     4.2410 hc         1 SUM       0.041700
     57 H242        -6.3210    -7.9410     3.1450 hc         1 SUM       0.041700
     58 H251        -6.3160    -6.7490     5.9420 hc         1 SUM       0.041200
     59 H252        -7.7030    -6.7950     4.8450 hc         1 SUM       0.041200
     60 H261        -6.2200    -9.2210     5.9230 hc         1 SUM       0.040700
     61 H262        -7.6080    -9.2660     4.8270 hc         1 SUM       0.040700
     62 H271        -8.9890    -8.1200     6.5280 hc         1 SUM       0.040200
     63 H272        -7.6010    -8.0730     7.6240 hc         1 SUM       0.040200
     64 H281        -7.4990   -10.5710     7.5340 hc         1 SUM       0.032033
     65 H282        -8.9600   -10.5660     6.5380 hc         1 SUM       0.032033
     66 H283        -9.0240    -9.9760     8.2050 hc         1 SUM       0.032033
     67 HO21        -4.1030    -3.3810     3.2560 ho         1 SUM       0.401000
     68 HCM1        -2.4030    -5.1930     0.7670 hc         1 SUM       0.063700
     69 HCM2        -3.8590    -5.3420    -0.2270 hc         1 SUM       0.063700
@<TRIPOS>BOND
     1     1     2 1
     2     1     7 1
     3     1    11 1
     4     1    32 1
     5     2     3 1
     6     2     8 1
     7     2    33 1
     8     3     4 1
     9     3     9 1
    10     3    34 1
    11     4     5 1
    12     4    10 1
    13     4    35 1
    14     5     6 1
    15     5    11 1
    16     5    36 1
    17     6    12 1
    18     6    37 1
    19     6    38 1
    20     7    14 1
    21     8    39 1
    22     9    40 1
    23    10    41 1
    24    12    42 1
    25    13    14 1
    26    13    18 1
    27    13    43 1
    28    13    44 1
    29    14    15 1
    30    14    21 1
    31    15    16 1
    32    15    19 1
    33    15    45 1
    34    16    17 1
    35    16    20 1
    36    16    46 1
    37    17    21 1
    38    17    31 1
    39    17    47 1
    40    18    48 1
    41    19    49 1
    42    20    50 1
    43    22    23 1
    44    22    30 1
    45    22    31 1
    46    22    51 1
    47    23    24 1
    48    23    52 1
    49    23    53 1
    50    24    25 1
    51    24    54 1
    52    24    55 1
    53    25    26 1
    54    25    56 1
    55    25    57 1
    56    26    27 1
    57    26    58 1
    58    26    59 1
    59    27    28 1
    60    27    60 1
    61    27    61 1
    62    28    29 1
    63    28    62 1
    64    28    63 1
    65    29    64 1
    66    29    65 1
    67    29    66 1
    68    30    67 1
    69    31    68 1
    70    31    69 1
@<TRIPOS>SUBSTRUCTURE
     1 SUM         1 TEMP              0 ****  ****    0 ROOT
