@<TRIPOS>MOLECULE
SUM
   69    70     1     0     0
SMALL
bcc


@<TRIPOS>ATOM
      1 C1         -0.3260   -0.6360    0.5310 c3        1 SUM      0.336900
      2 C2          0.6660   -1.6130    1.2010 c3        1 SUM      0.132100
      3 C3          0.1390   -2.0170    2.5840 c3        1 SUM      0.056100
      4 C4         -0.0560   -0.7330    3.4090 c3        1 SUM      0.096100
      5 C5         -1.0940    0.1360    2.6870 c3        1 SUM      0.101100
      6 C6         -1.2990    1.4790    3.3930 c3        1 SUM      0.138400
      7 O1         -1.5420   -1.3210    0.3190 os        1 SUM     -0.469600
      8 O2          0.8100   -2.7320    0.3490 oh        1 SUM     -0.605800
      9 O3          1.1210   -2.8500    3.1810 oh        1 SUM     -0.609800
     10 O4         -0.5680   -1.0330    4.6950 oh        1 SUM     -0.584800
     11 O5         -0.6410    0.4600    1.3650 os        1 SUM     -0.450600
     12 O6         -2.4020    2.1700    2.8510 oh        1 SUM     -0.593800
     13 C11        -2.6260    0.6030   -0.8270 c3        1 SUM      0.132400
     14 C12        -2.3700   -0.9070   -0.7700 c3        1 SUM      0.273600
     15 C13        -1.8890   -1.4980   -2.1230 c3        1 SUM      0.078100
     16 C14        -2.7510   -2.7700   -2.3210 c3        1 SUM      0.085100
     17 C15        -3.6610   -2.8480   -1.0770 c3        1 SUM      0.139100
     18 O11        -3.3480    1.0890    0.2790 oh        1 SUM     -0.582800
     19 O13        -0.5130   -1.7730   -2.1530 oh        1 SUM     -0.592800
     20 O14        -3.5910   -2.6570   -3.4530 oh        1 SUM     -0.584800
     21 O15        -3.5700   -1.5760   -0.4060 os        1 SUM     -0.392600
     22 C21        -3.9090   -3.9040    1.2090 c3        1 SUM      0.156100
     23 C22        -3.9790   -5.2850    1.8550 c3        1 SUM     -0.074400
     24 C23        -4.7930   -5.2540    3.1300 c3        1 SUM     -0.079400
     25 C24        -4.8210   -6.6120    3.7960 c3        1 SUM     -0.077400
     26 C25        -5.6430   -6.5830    5.0670 c3        1 SUM     -0.079400
     27 C26        -5.6680   -7.9390    5.7370 c3        1 SUM     -0.079400
     28 C27        -6.4890   -7.9100    7.0090 c3        1 SUM     -0.080400
     29 C28        -6.5180   -9.2590    7.6800 c3        1 SUM     -0.092100
     30 O21        -3.1710   -3.0690    2.0940 oh        1 SUM     -0.618800
     31 CM         -3.2180   -3.9720   -0.1530 c3        1 SUM     -0.140400
     32 H1          0.1030   -0.1920   -0.4100 h2        1 SUM      0.109700
     33 H2          1.6600   -1.0920    1.3060 h1        1 SUM      0.066700
     34 H3         -0.8430   -2.5630    2.4760 h1        1 SUM      0.104700
     35 H4          0.9220   -0.1840    3.5030 h1        1 SUM      0.057700
     36 H5         -2.0670   -0.4270    2.6190 h1        1 SUM      0.082700
     37 H61        -0.3660    2.0970    3.3240 h1        1 SUM      0.064200
     38 H62        -1.5650    1.2850    4.4670 h1        1 SUM      0.064200
     39 HO2         1.2840   -3.4050    0.8580 ho        1 SUM      0.432000
     40 HO3         0.6580   -3.4120    3.8130 ho        1 SUM      0.416000
     41 HO4         0.1270   -1.5230    5.1540 ho        1 SUM      0.409000
     42 HO6        -2.1820    2.3990    1.9370 ho        1 SUM      0.416000
     43 H111       -3.2630    0.8430   -1.7210 h1        1 SUM      0.061200
     44 H112       -1.6360    1.1300   -0.8980 h1        1 SUM      0.061200
     45 H13        -2.0610   -0.7630   -2.9570 h1        1 SUM      0.100700
     46 H14        -2.0960   -3.6780   -2.4130 h1        1 SUM      0.063700
     47 H15        -4.7440   -2.9420   -1.3600 h1        1 SUM      0.102700
     48 HO11       -3.0210    0.6320    1.0670 ho        1 SUM      0.419000
     49 HO13       -0.3150   -2.3870   -1.4280 ho        1 SUM      0.436000
     50 HO14       -3.0150   -2.6520   -4.2280 ho        1 SUM      0.410000
     51 H21        -4.9470   -3.4830    1.0870 h1        1 SUM      0.042700
     52 H221       -2.9390   -5.6380    2.0780 hc        1 SUM      0.043700
     53 H222       -4.4390   -6.0010    1.1260 hc        1 SUM      0.043700
     54 H231       -4.3530   -4.4930    3.8280 hc        1 SUM      0.050200
     55 H232       -5.8410   -4.9260    2.8990 hc        1 SUM      0.050200
     56 H241       -5.2490   -7.3710    3.0890 hc        1 SUM      0.036700
     57 H242       -3.7730   -6.9360    4.0340 hc        1 SUM      0.036700
     58 H251       -5.2160   -5.8220    5.7720 hc        1 SUM      0.041200
     59 H252       -6.6910   -6.2610    4.8290 hc        1 SUM      0.041200
     60 H261       -6.0950   -8.7000    5.0320 hc        1 SUM      0.038200
     61 H262       -4.6200   -8.2620    5.9750 hc        1 SUM      0.038200
     62 H271       -7.5370   -7.5870    6.7690 hc        1 SUM      0.038700
     63 H272       -6.0620   -7.1480    7.7120 hc        1 SUM      0.038700
     64 H281       -5.4850   -9.5880    7.9490 hc        1 SUM      0.032033
     65 H282       -6.9640  -10.0270    7.0030 hc        1 SUM      0.032033
     66 H283       -7.1280   -9.2150    8.6140 hc        1 SUM      0.032033
     67 HO21       -3.1080   -2.2030    1.6650 ho        1 SUM      0.424000
     68 HCM1       -2.1080   -3.9030    0.0110 hc        1 SUM      0.063700
     69 HCM2       -3.4460   -4.9480   -0.6530 hc        1 SUM      0.063700
@<TRIPOS>BOND
     1    1    2 1   
     2    1    7 1   
     3    1   11 1   
     4    1   32 1   
     5    2    3 1   
     6    2    8 1   
     7    2   33 1   
     8    3    4 1   
     9    3    9 1   
    10    3   34 1   
    11    4    5 1   
    12    4   10 1   
    13    4   35 1   
    14    5    6 1   
    15    5   11 1   
    16    5   36 1   
    17    6   12 1   
    18    6   37 1   
    19    6   38 1   
    20    7   14 1   
    21    8   39 1   
    22    9   40 1   
    23   10   41 1   
    24   12   42 1   
    25   13   14 1   
    26   13   18 1   
    27   13   43 1   
    28   13   44 1   
    29   14   15 1   
    30   14   21 1   
    31   15   16 1   
    32   15   19 1   
    33   15   45 1   
    34   16   17 1   
    35   16   20 1   
    36   16   46 1   
    37   17   21 1   
    38   17   31 1   
    39   17   47 1   
    40   18   48 1   
    41   19   49 1   
    42   20   50 1   
    43   22   23 1   
    44   22   30 1   
    45   22   31 1   
    46   22   51 1   
    47   23   24 1   
    48   23   52 1   
    49   23   53 1   
    50   24   25 1   
    51   24   54 1   
    52   24   55 1   
    53   25   26 1   
    54   25   56 1   
    55   25   57 1   
    56   26   27 1   
    57   26   58 1   
    58   26   59 1   
    59   27   28 1   
    60   27   60 1   
    61   27   61 1   
    62   28   29 1   
    63   28   62 1   
    64   28   63 1   
    65   29   64 1   
    66   29   65 1   
    67   29   66 1   
    68   30   67 1   
    69   31   68 1   
    70   31   69 1   
@<TRIPOS>SUBSTRUCTURE
     1 SUM         1 TEMP              0 ****  ****    0 ROOT
