@<TRIPOS>MOLECULE
molecule
   31    30     1     0     0
SMALL
bcc


@<TRIPOS>ATOM
      1 N            0.0000     0.0000     0.0000 ns         1 SUO      -0.589900
      2 CA           1.4650     0.0000     0.0000 c3         1 SUO       0.009700
      3 CB           1.9750     0.0000     1.4420 c3         1 SUO      -0.066400
      4 CG           1.5700     1.3080     2.1260 c3         1 SUO      -0.116400
      5 CD           2.0800     1.3080     3.5690 c3         1 SUO       0.080800
      6 NE           1.6910     2.5640     4.2240 nz         1 SUO      -0.812600
      7 C            1.9670    -1.2310    -0.7100 c          1 SUO       0.882600
      8 O            3.2870    -1.4440    -0.8330 o          1 SUO      -0.823300
      9 OXT         -0.0670     0.9360    -2.0110 o          1 SUO      -0.612100
     10 O2           1.1820    -2.0270    -1.1690 o          1 SUO      -0.823300
     11 CW          -2.1810     0.4930    -1.0590 c3         1 SUO      -0.134400
     12 CX          -2.6900     1.1030    -2.3660 c3         1 SUO      -0.166400
     13 CY          -4.1980     1.1030    -2.3670 c          1 SUO       0.889600
     14 OD1         -4.8690     1.5940    -3.4210 o          1 SUO      -0.865300
     15 OD2         -4.8020     0.6610    -1.4180 o          1 SUO      -0.865300
     16 CV          -0.6730     0.4930    -1.0590 c          1 SUO       0.654100
     17 HN          -0.5000    -0.4100     0.7640 hn         1 SUO       0.287500
     18 HA           1.8260     0.8840    -0.5110 h1         1 SUO       0.073700
     19 HB1          1.5430    -0.8370     1.9780 hc         1 SUO       0.060700
     20 HB2          3.0550    -0.0890     1.4430 hc         1 SUO       0.060700
     21 HG1          2.0020     2.1440     1.5900 hc         1 SUO       0.065200
     22 HG2          0.4900     1.3970     2.1240 hc         1 SUO       0.065200
     23 HD1A         1.6480     0.4720     4.1050 hx         1 SUO       0.103700
     24 HD2          3.1590     1.2200     3.5700 hx         1 SUO       0.103700
     25 HNE1         0.6940     2.6540     4.2080 hn         1 SUO       0.445467
     26 HNE2         2.0090     2.5570     5.1730 hn         1 SUO       0.445467
     27 HW1         -2.5420     1.0790    -0.2230 hc         1 SUO       0.054700
     28 HW2         -2.5420    -0.5240    -0.9700 hc         1 SUO       0.054700
     29 HX1         -2.3290     0.5170    -3.2030 hc         1 SUO       0.046700
     30 HX2         -2.3290     2.1200    -2.4550 hc         1 SUO       0.046700
     31 HE3          2.1110     3.3350     3.7450 hn         1 SUO       0.445467
@<TRIPOS>BOND
     1     1     2 1
     2     1    16 1
     3     1    17 1
     4     2     3 1
     5     2     7 1
     6     2    18 1
     7     3     4 1
     8     3    19 1
     9     3    20 1
    10     4     5 1
    11     4    21 1
    12     4    22 1
    13     5     6 1
    14     5    23 1
    15     5    24 1
    16     6    25 1
    17     6    26 1
    18     7     8 1
    19     7    10 1
    20     9    16 2
    21    11    12 1
    22    11    16 1
    23    11    27 1
    24    11    28 1
    25    12    13 1
    26    12    29 1
    27    12    30 1
    28    13    14 1
    29    13    15 1
    30    31     6 1
@<TRIPOS>SUBSTRUCTURE
     1 SUO         1 TEMP              0 ****  ****    0 ROOT
