@<TRIPOS>MOLECULE
SUV
   55    56     1     0     0
SMALL
bcc


@<TRIPOS>ATOM
      1 C1         -0.4960   -0.4930   -0.0200 c2        1 SUV      0.829500
      2 N1         -0.6760    0.4020   -1.0730 nh        1 SUV     -0.729600
      3 O1          0.7770   -1.1850   -0.0390 os        1 SUV     -0.247200
      4 N2         -1.3980   -0.7570    0.8980 ne        1 SUV     -0.492700
      5 O2         -3.6850   -2.5920   -3.2870 o         1 SUV     -0.644100
      6 C3         -1.1460   -1.5680    1.9420 cg        1 SUV     -0.048000
      7 N3         -3.1560   -0.5620   -2.4360 n         1 SUV     -0.551900
      8 C4         -1.0480   -2.2720    2.9110 c1        1 SUV     -0.142500
      9 N4         -5.6690   -4.1610   -0.9930 nh        1 SUV     -0.181500
     10 C5          3.8860    1.9260    1.9490 c2        1 SUV     -0.059600
     11 N5         -5.0960   -4.8280   -2.0720 nh        1 SUV     -0.432800
     12 C6          3.9020    0.7290    1.3430 ce        1 SUV     -0.006700
     13 N6         -6.2070   -5.0930   -0.1400 n2        1 SUV     -0.410100
     14 C7          2.7470    0.1050    0.8610 cg        1 SUV     -0.172300
     15 C8          1.7780   -0.4590    0.4410 c1        1 SUV     -0.004400
     16 C11        -1.8820    1.1860   -1.1580 c3        1 SUV      0.215800
     17 C12        -3.2110    0.4360   -1.4090 c3        1 SUV      0.064000
     18 C14        -0.0470    0.8080   -3.5650 cx        1 SUV     -0.110700
     19 C15         0.3400   -0.6090   -3.2440 cx        1 SUV     -0.133400
     20 C16         0.2850    0.4210   -2.1310 cx        1 SUV      0.152500
     21 C17        -3.9370   -1.6930   -2.4500 c         1 SUV      0.681300
     22 C19        -5.0840   -1.8250   -1.5030 ce        1 SUV     -0.184500
     23 C20        -4.9630   -2.9420   -0.4880 c3        1 SUV      0.306900
     24 C21        -5.5320   -2.4910    0.8290 c2        1 SUV     -0.162200
     25 C22        -4.7680   -2.2650    1.8940 c2        1 SUV     -0.190000
     26 C23        -7.1730   -0.3350   -1.6990 c1        1 SUV     -0.049900
     27 C24        -6.1420   -1.0590   -1.6030 c1        1 SUV      0.018100
     28 C27        -5.4230   -6.1420   -1.9670 c2        1 SUV     -0.051100
     29 C28        -6.1460   -6.3110   -0.6830 c1        1 SUV      0.039500
     30 C29        -8.2440    0.4000   -1.8000 c2        1 SUV     -0.162100
     31 C30         0.9030    1.6970   -4.2890 c3        1 SUV     -0.076100
     32 H1         -0.9720   -2.8930    3.7660 ha        1 SUV      0.179500
     33 H2          2.9790    2.5190    2.1260 h4        1 SUV      0.157000
     34 H3          4.8410    0.1620    1.1910 ha        1 SUV      0.159000
     35 H4         -2.0160    1.7380   -0.1810 h1        1 SUV      0.071200
     36 H5         -1.7330    1.9490   -1.9750 h1        1 SUV      0.071200
     37 H6         -3.5670   -0.0320   -0.4460 h1        1 SUV      0.067200
     38 H7         -3.9660    1.2250   -1.7020 h1        1 SUV      0.067200
     39 H8         -2.4030   -0.5240   -3.0880 hn        1 SUV      0.320500
     40 H9         -1.1030    1.0040   -3.8430 hc        1 SUV      0.081700
     41 H10        -0.4250   -1.4030   -3.3050 hc        1 SUV      0.088700
     42 H11         1.3370   -0.9790   -3.5470 hc        1 SUV      0.088700
     43 H12         1.2710    0.7730   -1.7360 h1        1 SUV      0.099700
     44 H13        -3.8610   -3.1780   -0.3560 h1        1 SUV      0.073700
     45 H14        -6.6270   -2.3690    0.8530 ha        1 SUV      0.148000
     46 H15        -3.6760   -2.3930    1.8990 ha        1 SUV      0.123000
     47 H16        -4.7520   -4.2940   -2.8500 hn        1 SUV      0.502800
     48 H17        -5.2330   -6.8740   -2.7540 h4        1 SUV      0.186000
     49 H18        -5.1980   -1.9230    2.8460 ha        1 SUV      0.123000
     50 H19        -8.3310    1.2100   -2.5400 ha        1 SUV      0.143000
     51 H20        -9.1190    0.2450   -1.1490 ha        1 SUV      0.143000
     52 H21         0.6880    2.7680   -4.0530 hc        1 SUV      0.046367
     53 H22         1.9620    1.4790   -4.0050 hc        1 SUV      0.046367
     54 H23         0.7970    1.5490   -5.3920 hc        1 SUV      0.046367
     55 CL1         5.2900    2.6710    2.5220 cl        1 SUV     -0.100400
@<TRIPOS>BOND
     1    1    2 1
     2    1    3 1
     3    1    4 2
     4    2   16 1
     5    2   20 1
     6    3   15 1
     7    4    6 1
     8    5   21 2
     9    6    8 3
    10    7   17 1
    11    7   21 1
    12    7   39 1
    13    8   32 1
    14    9   11 1
    15    9   13 1
    16    9   23 1
    17   10   12 2
    18   10   33 1
    19   10   55 1
    20   11   28 1
    21   11   47 1
    22   12   14 1
    23   12   34 1
    24   13   29 2
    25   14   15 3
    26   16   17 1
    27   16   35 1
    28   16   36 1
    29   17   37 1
    30   17   38 1
    31   18   19 1
    32   18   20 1
    33   18   31 1
    34   18   40 1
    35   19   20 1
    36   19   41 1
    37   19   42 1
    38   20   43 1
    39   21   22 1
    40   22   23 1
    41   22   27 2
    42   23   24 1
    43   23   44 1
    44   24   25 2
    45   24   45 1
    46   25   46 1
    47   25   49 1
    48   26   27 2
    49   26   30 2
    50   28   29 2
    51   28   48 1
    52   30   50 1
    53   30   51 1
    54   31   52 1
    55   31   53 1
    56   31   54 1
@<TRIPOS>SUBSTRUCTURE
     1 SUV         1 TEMP              0 ****  ****    0 ROOT
