@<TRIPOS>MOLECULE
SUW
   61    63     1     0     0
SMALL
bcc


@<TRIPOS>ATOM
      1 CX1          1.5050     0.0000     0.0000 c          1 SUW       0.936600
      2 O1A          2.2060    -0.8230    -0.5710 o          1 SUW      -0.878300
      3 O1B          1.9840     1.0400     0.7250 o          1 SUW      -0.878300
      4 CX2          0.0000     0.0000     0.0000 c3         1 SUW       0.262600
      5 OX2         -0.3500     0.0000     1.3840 os         1 SUW      -0.378600
      6 CO2          0.1640    -1.1460     2.0430 c3         1 SUW       0.230700
      7 CX3         -0.5680     1.2820    -0.6040 c3         1 SUW      -0.073400
      8 CX4         -0.4130     1.3220    -2.1200 c3         1 SUW       0.190100
      9 OX4         -1.1490     2.4420    -2.6080 oh         1 SUW      -0.596800
     10 CX5         -0.9380     0.0300    -2.7520 c3         1 SUW      -0.045300
     11 NX5         -0.6510     0.0180    -4.1690 ns         1 SUW      -0.182900
     12 C10         -1.6340    -0.0130    -5.1380 c          1 SUW       0.586100
     13 O10         -2.8450    -0.0330    -4.9480 o          1 SUW      -0.639100
     14 C11         -1.1090    -0.0180    -6.5360 c3         1 SUW      -0.092100
     15 CX6         -0.3330    -1.1990    -2.0540 c3         1 SUW       0.176100
     16 OX6         -0.5440    -1.1420    -0.6370 os         1 SUW      -0.412600
     17 CX7         -0.9700    -2.5000    -2.5360 c3         1 SUW       0.200100
     18 OX7         -2.3830    -2.3930    -2.3490 oh         1 SUW      -0.573800
     19 CX8         -0.4710    -3.7460    -1.7910 c3         1 SUW       0.148100
     20 OX8          0.9550    -3.8020    -1.8950 oh         1 SUW      -0.579800
     21 CX9         -1.0270    -5.0770    -2.2970 c3         1 SUW      -0.003000
     22 NX6         -0.6820    -5.3450    -3.6670 ns         1 SUW      -0.188900
     23 C12         -1.6380    -5.5240    -4.6600 c          1 SUW       0.594700
     24 O12         -2.8510    -5.4730    -4.4780 o          1 SUW      -0.641100
     25 C25         -1.9110    -6.5390    -6.8920 ca         1 SUW      -0.014000
     26 C26         -1.1190    -5.8210    -6.0200 ca         1 SUW      -0.106600
     27 C27          0.1340    -5.3680    -6.3650 ca         1 SUW      -0.099000
     28 C28          0.6220    -5.6450    -7.6420 ca         1 SUW      -0.135000
     29 C2B         -0.1480    -6.3730    -8.5620 ca         1 SUW      -0.027000
     30 C21          0.3270    -6.6620    -9.8510 ca         1 SUW      -0.094000
     31 C22         -0.4530    -7.3870   -10.7530 ca         1 SUW      -0.098000
     32 C23         -1.7180    -7.8330   -10.3790 ca         1 SUW      -0.110000
     33 C24         -2.2060    -7.5550    -9.1020 ca         1 SUW      -0.078000
     34 C2A         -1.4340    -6.8270    -8.1820 ca         1 SUW      -0.068000
     35 HO21         0.2240    -0.9540     3.1070 h1         1 SUW      -0.011967
     36 HO22         1.1520    -1.3700     1.6600 h1         1 SUW      -0.011967
     37 HO23        -0.4920    -1.9890     1.8650 h1         1 SUW      -0.011967
     38 HX31        -1.6210     1.3480    -0.3570 hc         1 SUW       0.042200
     39 HX32        -0.0480     2.1310    -0.1760 hc         1 SUW       0.042200
     40 HX4          0.6350     1.4400    -2.3680 h1         1 SUW       0.012700
     41 HA          -0.5900     3.2010    -2.6260 ho         1 SUW       0.383000
     42 HX5         -2.0130    -0.0000    -2.6170 h1         1 SUW       0.087700
     43 HB           0.3060     0.0370    -4.4610 hn         1 SUW       0.169500
     44 H111        -1.0060     1.0010    -6.8870 hc         1 SUW       0.018033
     45 H112        -0.1420    -0.5070    -6.5570 hc         1 SUW       0.018033
     46 H113        -1.7980    -0.5540    -7.1780 hc         1 SUW       0.018033
     47 HX6          0.7320    -1.2260    -2.2500 h1         1 SUW       0.068700
     48 HX7         -0.7640    -2.6190    -3.5930 h1         1 SUW      -0.008300
     49 HC          -2.8270    -2.7280    -3.1100 ho         1 SUW       0.390000
     50 HX8         -0.7340    -3.6440    -0.7450 h1         1 SUW       0.041700
     51 HD           1.3020    -4.3250    -1.1910 ho         1 SUW       0.392000
     52 HX91        -2.1070    -5.0590    -2.2070 h1         1 SUW       0.031700
     53 HX92        -0.6380    -5.8750    -1.6760 h1         1 SUW       0.031700
     54 HE           0.2850    -5.4020    -3.9160 hn         1 SUW       0.184500
     55 H27          1.0190    -4.8340    -6.0410 ha         1 SUW       0.141000
     56 H28          1.6140    -5.3230    -7.9370 ha         1 SUW       0.106000
     57 H21          1.3100    -6.3180   -10.1490 ha         1 SUW       0.102000
     58 H22         -0.0740    -7.6020   -11.7450 ha         1 SUW       0.099000
     59 H23         -2.3220    -8.3960   -11.0790 ha         1 SUW       0.100000
     60 H24         -3.1910    -7.9050    -8.8180 ha         1 SUW       0.105000
     61 H25         -2.8630    -7.0380    -6.7590 ha         1 SUW       0.125000
@<TRIPOS>BOND
     1     1     2 1   
     2     1     3 1   
     3     1     4 1   
     4     4     5 1   
     5     4     7 1   
     6     4    16 1   
     7     5     6 1   
     8     6    35 1   
     9     6    36 1   
    10     6    37 1   
    11     7     8 1   
    12     7    38 1   
    13     7    39 1   
    14     8     9 1   
    15     8    10 1   
    16     8    40 1   
    17     9    41 1   
    18    10    11 1   
    19    10    15 1   
    20    10    42 1   
    21    11    12 1   
    22    11    43 1   
    23    12    13 2   
    24    12    14 1   
    25    14    44 1   
    26    14    45 1   
    27    14    46 1   
    28    15    16 1   
    29    15    17 1   
    30    15    47 1   
    31    17    18 1   
    32    17    19 1   
    33    17    48 1   
    34    18    49 1   
    35    19    20 1   
    36    19    21 1   
    37    19    50 1   
    38    20    51 1   
    39    21    22 1   
    40    21    52 1   
    41    21    53 1   
    42    22    23 1   
    43    22    54 1   
    44    23    24 2   
    45    23    26 1   
    46    25    26 ar  
    47    25    34 ar  
    48    25    61 1   
    49    26    27 ar  
    50    27    28 ar  
    51    27    55 1   
    52    28    29 ar  
    53    28    56 1   
    54    29    30 ar  
    55    29    34 ar  
    56    30    31 ar  
    57    30    57 1   
    58    31    32 ar  
    59    31    58 1   
    60    32    33 ar  
    61    32    59 1   
    62    33    34 ar  
    63    33    60 1   
@<TRIPOS>SUBSTRUCTURE
     1 SUW         1 TEMP              0 ****  ****    0 ROOT
