@<TRIPOS>MOLECULE
molecule
   45    49     1     0     0
SMALL
bcc


@<TRIPOS>ATOM
      1 Cl1          0.0000     0.0000     0.0000 cl         1 SUY      -0.068400
      2 C9           1.7360     0.0000     0.0000 cc         1 SUY      -0.019800
      3 C8           2.5370     0.0000     1.0780 cd         1 SUY      -0.016300
      4 C10          2.0640     0.0010     2.5100 c3         1 SUY      -0.026200
      5 C11          1.7850    -1.4360     2.9550 c3         1 SUY      -0.091100
      6 N7           3.8520     0.0000     0.6810 na         1 SUY      -0.260100
      7 C6           3.9280    -0.0010    -0.6850 ca         1 SUY       0.517800
      8 N1           4.9330    -0.0060    -1.5600 nb         1 SUY      -0.750000
      9 C5           2.6090    -0.0070    -1.1750 ca         1 SUY      -0.306400
     10 C4           2.4030    -0.0100    -2.5630 ca         1 SUY       0.657200
     11 N13          1.1230    -0.0150    -3.0880 nh         1 SUY      -0.665300
     12 C17          0.8890     1.1850    -3.9320 c3         1 SUY       0.183800
     13 C16         -0.2930     0.7930    -4.8450 cx         1 SUY      -0.123700
     14 C18          0.0170     0.0750    -6.1600 cx         1 SUY       0.008500
     15 N19         -1.0180     0.0940    -7.2020 nz         1 SUY      -0.775600
     16 C15         -0.2630    -0.7480    -4.9010 cx         1 SUY      -0.123700
     17 C14          0.9350    -1.1590    -4.0190 c3         1 SUY       0.183800
     18 N3           3.4650    -0.0060    -3.3610 nb         1 SUY      -0.799000
     19 C2           4.6940    -0.0170    -2.8600 ca         1 SUY       0.803300
     20 S20          6.0620    -0.0100    -3.9710 ss         1 SUY      -0.185200
     21 C21          7.3890    -0.1860    -2.8250 ca         1 SUY      -0.282700
     22 C26          7.9140    -1.4410    -2.5280 ca         1 SUY       0.520200
     23 N25          8.9110    -1.5290    -1.6620 nb         1 SUY      -0.741000
     24 C24          9.4050    -0.4520    -1.0850 ca         1 SUY       0.714900
     25 N23          8.9360     0.7530    -1.3410 nb         1 SUY      -0.741000
     26 C22          7.9430     0.9270    -2.1980 ca         1 SUY       0.520200
     27 H1           2.8300     0.4330     3.1430 hc         1 SUY       0.068200
     28 H2           1.1560     0.5870     2.5900 hc         1 SUY       0.068200
     29 H3           2.6880    -2.0270     2.8550 hc         1 SUY       0.046367
     30 H4           1.4660    -1.4380     3.9900 hc         1 SUY       0.046367
     31 H5           1.0050    -1.8610     2.3360 hc         1 SUY       0.046367
     32 H6           4.6390     0.0000     1.2990 hn         1 SUY       0.324700
     33 H7           0.6220     2.0330    -3.3140 h1         1 SUY       0.084950
     34 H8           1.7670     1.4040    -4.5270 h1         1 SUY       0.084950
     35 H9          -1.2910     1.1730    -4.6610 hc         1 SUY       0.114700
     36 H10          1.0590     0.1070    -6.4580 hx         1 SUY       0.167700
     37 H11         -1.9220     0.0590    -6.7750 hn         1 SUY       0.458133
     38 H12         -0.9350     0.9350    -7.7390 hn         1 SUY       0.458133
     39 H14         -1.2450    -1.1790    -4.7460 hc         1 SUY       0.114700
     40 H15          0.7030    -2.0600    -3.4640 h1         1 SUY       0.084950
     41 H16          1.8200    -1.2980    -4.6270 h1         1 SUY       0.084950
     42 H17          7.5140    -2.3310    -2.9980 h4         1 SUY       0.041600
     43 H18         10.2190    -0.5610    -0.3790 h5         1 SUY       0.070100
     44 H19          7.5620     1.9200    -2.4040 h4         1 SUY       0.041600
     45 H193        -0.8810    -0.6790    -7.8230 hn         1 SUY       0.458133
@<TRIPOS>BOND
     1    24    25 ar
     2    24    23 ar
     3    25    26 ar
     4    23    22 ar
     5    26    21 ar
     6    22    21 ar
     7    21    20 1
     8    15    14 1
     9    20    19 1
    10    14    13 1
    11    14    16 1
    12    13    12 1
    13    13    16 1
    14    19    18 ar
    15    19     8 ar
    16    18    10 ar
    17    12    11 1
    18    16    17 1
    19     8     7 ar
    20    11    10 1
    21    11    17 1
    22    10     9 ar
    23     7     9 ar
    24     7     6 1
    25     9     2 1
    26     6     3 1
    27     2     3 2
    28     2     1 1
    29     3     4 1
    30     4     5 1
    31     4    27 1
    32     4    28 1
    33     5    29 1
    34     5    30 1
    35     5    31 1
    36     6    32 1
    37    12    33 1
    38    12    34 1
    39    13    35 1
    40    14    36 1
    41    15    37 1
    42    15    38 1
    43    16    39 1
    44    17    40 1
    45    17    41 1
    46    22    42 1
    47    24    43 1
    48    26    44 1
    49    45    15 1
@<TRIPOS>SUBSTRUCTURE
     1 SUY         1 TEMP              0 ****  ****    0 ROOT
