@<TRIPOS>MOLECULE
SUY
   45    49     1     0     0
SMALL
bcc


@<TRIPOS>ATOM
      1 Cl1          0.0000     0.0000     0.0000 cl         1 SUY       0.028600
      2 C9           1.7360     0.0000     0.0000 cc         1 SUY      -0.071800
      3 C8           2.5370     0.0000     1.0780 cd         1 SUY      -0.225300
      4 C10          2.0640     0.0010     2.5100 c3         1 SUY       0.056800
      5 C11          1.7850    -1.4360     2.9550 c3         1 SUY       0.005900
      6 N7           3.8520     0.0000     0.6810 na         1 SUY       0.299900
      7 C6           3.9280    -0.0010    -0.6850 ca         1 SUY       0.273800
      8 N1           4.9330    -0.0060    -1.5600 nb         1 SUY      -0.614000
      9 C5           2.6090    -0.0070    -1.1750 ca         1 SUY      -0.309400
     10 C4           2.4030    -0.0100    -2.5630 ca         1 SUY       0.555200
     11 N13          1.1230    -0.0150    -3.0880 nh         1 SUY      -0.497300
     12 C17          0.8890     1.1850    -3.9320 c3         1 SUY       0.189300
     13 C16         -0.2930     0.7930    -4.8450 cx         1 SUY      -0.080700
     14 C18          0.0170     0.0750    -6.1600 cx         1 SUY      -0.185500
     15 N19         -1.0180     0.0940    -7.2020 nz         1 SUY       0.147400
     16 C15         -0.2630    -0.7480    -4.9010 cx         1 SUY      -0.080700
     17 C14          0.9350    -1.1590    -4.0190 c3         1 SUY       0.189300
     18 N3           3.4650    -0.0060    -3.3610 nb         1 SUY      -0.667000
     19 C2           4.6940    -0.0170    -2.8600 ca         1 SUY       0.755300
     20 S20          6.0620    -0.0100    -3.9710 ss         1 SUY      -0.326200
     21 C21          7.3890    -0.1860    -2.8250 ca         1 SUY      -0.237700
     22 C26          7.9140    -1.4410    -2.5280 ca         1 SUY       0.510200
     23 N25          8.9110    -1.5290    -1.6620 nb         1 SUY      -0.637500
     24 C24          9.4050    -0.4520    -1.0850 ca         1 SUY       0.670900
     25 N23          8.9360     0.7530    -1.3410 nb         1 SUY      -0.637500
     26 C22          7.9430     0.9270    -2.1980 ca         1 SUY       0.510200
     27 H1           2.8300     0.4330     3.1430 hc         1 SUY       0.028700
     28 H2           1.1560     0.5870     2.5900 hc         1 SUY       0.028700
     29 H3           2.6880    -2.0270     2.8550 hc         1 SUY       0.010367
     30 H4           1.4660    -1.4380     3.9900 hc         1 SUY       0.010367
     31 H5           1.0050    -1.8610     2.3360 hc         1 SUY       0.010367
     32 H6           4.6390     0.0000     1.2990 hn         1 SUY       0.133700
     33 H7           0.6220     2.0330    -3.3140 h1         1 SUY       0.046950
     34 H8           1.7670     1.4040    -4.5270 h1         1 SUY       0.046950
     35 H9          -1.2910     1.1730    -4.6610 hc         1 SUY       0.085700
     36 H10          1.0590     0.1070    -6.4580 hx         1 SUY       0.142700
     37 H11         -1.9220     0.0590    -6.7750 hn         1 SUY       0.217467
     38 H12         -0.9350     0.9350    -7.7390 hn         1 SUY       0.217467
     39 H14         -1.2450    -1.1790    -4.7460 hc         1 SUY       0.085700
     40 H15          0.7030    -2.0600    -3.4640 h1         1 SUY       0.046950
     41 H16          1.8200    -1.2980    -4.6270 h1         1 SUY       0.046950
     42 H17          7.5140    -2.3310    -2.9980 h4         1 SUY      -0.003400
     43 H18         10.2190    -0.5610    -0.3790 h5         1 SUY       0.006100
     44 H19          7.5620     1.9200    -2.4040 h4         1 SUY      -0.003400
     45 H193        -0.8810    -0.6790    -7.8230 hn         1 SUY       0.217467
@<TRIPOS>BOND
     1     1     2 1   
     2     2     3 2   
     3     2     9 1   
     4     3     4 1   
     5     3     6 1   
     6     4     5 1   
     7     4    27 1   
     8     4    28 1   
     9     5    29 1   
    10     5    30 1   
    11     5    31 1   
    12     6     7 1   
    13     6    32 1   
    14     7     8 ar  
    15     7     9 ar  
    16     8    19 ar  
    17     9    10 ar  
    18    10    11 1   
    19    10    18 ar  
    20    11    12 1   
    21    11    17 1   
    22    12    13 1   
    23    12    33 1   
    24    12    34 1   
    25    13    14 1   
    26    13    16 1   
    27    13    35 1   
    28    14    15 1   
    29    14    16 1   
    30    14    36 1   
    31    15    37 1   
    32    15    38 1   
    33    15    45 1   
    34    16    17 1   
    35    16    39 1   
    36    17    40 1   
    37    17    41 1   
    38    18    19 ar  
    39    19    20 1   
    40    20    21 1   
    41    21    22 ar  
    42    21    26 ar  
    43    22    23 ar  
    44    22    42 1   
    45    23    24 ar  
    46    24    25 ar  
    47    24    43 1   
    48    25    26 ar  
    49    26    44 1   
@<TRIPOS>SUBSTRUCTURE
     1 SUY         1 TEMP              0 ****  ****    0 ROOT
