@<TRIPOS>MOLECULE
SUZ
   41    43     1     0     0
SMALL
bcc


@<TRIPOS>ATOM
      1 C20        -0.3330   -0.1790   -0.0230 ca        1 SUZ     -0.058000
      2 C19         1.0470   -0.1110   -0.1980 ca        1 SUZ     -0.147000
      3 C5          1.8920    0.0670    0.9070 ca        1 SUZ      0.019200
      4 C6          3.3390    0.0780    0.7710 ce        1 SUZ     -0.154200
      5 C7          4.0980    0.9150    0.0500 cd        1 SUZ      0.041800
      6 C18         3.7230    2.0880   -0.7640 ca        1 SUZ     -0.100800
      7 C17         2.5040    2.6710   -1.0420 ca        1 SUZ     -0.088000
      8 C16         2.4540    3.8020   -1.8690 ca        1 SUZ     -0.194000
      9 C15         3.6340    4.3300   -2.4120 ca        1 SUZ      0.119900
     10 F           3.5700    5.4210   -3.2170 f         1 SUZ     -0.155900
     11 C14         4.8960    3.7490   -2.1340 ca        1 SUZ     -0.136000
     12 C13         4.9310    2.6460   -1.3070 ca        1 SUZ     -0.012800
     13 C10         6.0720    1.8450   -0.8180 cc        1 SUZ      0.027600
     14 C11         7.4680    2.1570   -1.1220 c3        1 SUZ     -0.183200
     15 C12         8.1120    1.1570   -2.1300 c         1 SUZ      0.927600
     16 O3          8.6140    0.1010   -1.6550 o         1 SUZ     -0.826800
     17 O2          8.1270    1.4890   -3.3440 o         1 SUZ     -0.826800
     18 C8          5.5800    0.8270   -0.0380 cd        1 SUZ     -0.137200
     19 C9          6.3620   -0.2320    0.6080 c3        1 SUZ     -0.057900
     20 C4          1.3220    0.1700    2.1880 ca        1 SUZ     -0.147000
     21 C3         -0.0550    0.1050    2.3500 ca        1 SUZ     -0.058000
     22 C2         -0.9020   -0.0750    1.2500 ca        1 SUZ     -0.154500
     23 S          -2.5730   -0.2660    1.5170 sx        1 SUZ      0.316400
     24 O1         -3.2160   -0.4670    0.1820 o         1 SUZ     -0.520200
     25 C1         -3.0240    1.3480    2.0000 c3        1 SUZ     -0.122800
     26 H20        -0.9970   -0.3210   -0.8950 ha        1 SUZ      0.138000
     27 H19         1.4830   -0.1960   -1.2060 ha        1 SUZ      0.146000
     28 H6          3.8430   -0.7170    1.3550 ha        1 SUZ      0.140000
     29 H17         1.5700    2.2630   -0.6270 ha        1 SUZ      0.135000
     30 H16         1.4900    4.2740   -2.1000 ha        1 SUZ      0.133000
     31 H14         5.8110    4.1610   -2.5840 ha        1 SUZ      0.169000
     32 H11         7.5540    3.1860   -1.5560 hc        1 SUZ      0.043700
     33 H11A        8.0760    2.1110   -0.1810 hc        1 SUZ      0.043700
     34 H9          5.8610   -1.2240    0.4880 hc        1 SUZ      0.053033
     35 H9A         6.4770   -0.0270    1.7020 hc        1 SUZ      0.053033
     36 H9B         7.3820   -0.2910    0.1330 hc        1 SUZ      0.053033
     37 H4          1.9780    0.3070    3.0610 ha        1 SUZ      0.146000
     38 H3         -0.4870    0.1970    3.3600 ha        1 SUZ      0.138000
     39 H1         -4.0380    1.3050    2.4610 h1        1 SUZ      0.079700
     40 H1A        -2.3110    1.7560    2.7510 h1        1 SUZ      0.079700
     41 H1B        -3.0760    2.0670    1.1510 h1        1 SUZ      0.079700
@<TRIPOS>BOND
     1    1    2 ar  
     2    1   22 ar  
     3    1   26 1   
     4    2    3 ar  
     5    2   27 1   
     6    3    4 1   
     7    3   20 ar  
     8    4    5 2   
     9    4   28 1   
    10    5    6 1   
    11    5   18 1   
    12    6    7 ar  
    13    6   12 ar  
    14    7    8 ar  
    15    7   29 1   
    16    8    9 ar  
    17    8   30 1   
    18    9   10 1   
    19    9   11 ar  
    20   11   12 ar  
    21   11   31 1   
    22   12   13 1   
    23   13   14 1   
    24   13   18 2   
    25   14   15 1   
    26   14   32 1   
    27   14   33 1   
    28   15   16 1   
    29   15   17 1   
    30   18   19 1   
    31   19   34 1   
    32   19   35 1   
    33   19   36 1   
    34   20   21 ar  
    35   20   37 1   
    36   21   22 ar  
    37   21   38 1   
    38   22   23 1   
    39   23   24 2   
    40   23   25 1   
    41   25   39 1   
    42   25   40 1   
    43   25   41 1   
@<TRIPOS>SUBSTRUCTURE
     1 SUZ         1 TEMP              0 ****  ****    0 ROOT
