@<TRIPOS>MOLECULE
molecule
   41    43     1     0     0
SMALL
bcc


@<TRIPOS>ATOM
      1 C20          0.0000     0.0000     0.0000 ca         1 SUZ      -0.065500
      2 C19          1.3790     0.0000     0.0000 ca         1 SUZ      -0.137000
      3 C5           2.0740     0.0000     1.2150 ca         1 SUZ       0.000200
      4 C6           3.5420    -0.0000     1.2250 ce         1 SUZ      -0.145200
      5 C7           4.2300     0.8270     0.3860 cd         1 SUZ       0.042800
      6 C18          3.6700     1.9300    -0.4210 ca         1 SUZ      -0.111800
      7 C17          2.3870     2.4430    -0.5780 ca         1 SUZ      -0.093000
      8 C16          2.1730     3.5100    -1.4270 ca         1 SUZ      -0.191000
      9 C15          3.2310     4.0760    -2.1260 ca         1 SUZ       0.126900
     10 F            3.0050     5.1190    -2.9540 f          1 SUZ      -0.154900
     11 C14          4.5120     3.5800    -1.9840 ca         1 SUZ      -0.133000
     12 C13          4.7490     2.5010    -1.1290 ca         1 SUZ       0.006200
     13 C10          5.9670     1.7670    -0.7720 cc         1 SUZ       0.036600
     14 C11          7.3430     2.0600    -1.3100 c3         1 SUZ      -0.150200
     15 C12          7.5290     1.3520    -2.6270 c          1 SUZ       0.893600
     16 O3           6.6350     0.6780    -3.0830 o          1 SUZ      -0.837800
     17 O2           8.6870     1.4690    -3.2950 o          1 SUZ      -0.837800
     18 C8           5.6730     0.7960     0.1130 cd         1 SUZ      -0.150200
     19 C9           6.6610    -0.1660     0.7200 c3         1 SUZ      -0.017900
     20 C4           1.3610     0.0000     2.4210 ca         1 SUZ      -0.137000
     21 C3          -0.0170     0.0020     2.4030 ca         1 SUZ      -0.065500
     22 C2          -0.6970     0.0060     1.1960 ca         1 SUZ      -0.131500
     23 S           -2.4580     0.0080     1.1840 sx         1 SUZ       0.329400
     24 O1          -2.7700    -0.5460    -0.0870 o          1 SUZ      -0.523200
     25 C1          -2.8650     1.7760     1.1880 c3         1 SUZ      -0.107800
     26 H20         -0.5400     0.0020    -0.9390 ha         1 SUZ       0.134000
     27 H19          1.9220    -0.0050    -0.9370 ha         1 SUZ       0.147500
     28 H6           4.0790    -0.6570     1.9000 ha         1 SUZ       0.141000
     29 H17          1.5580     2.0060    -0.0360 ha         1 SUZ       0.141000
     30 H16          1.1730     3.9090    -1.5480 ha         1 SUZ       0.130000
     31 H14          5.3320     4.0280    -2.5330 ha         1 SUZ       0.160000
     32 H11          7.4550     3.1270    -1.4540 hc         1 SUZ       0.045700
     33 H11A         8.0880     1.7110    -0.6040 hc         1 SUZ       0.045700
     34 H9           6.9530    -0.9000    -0.0210 hc         1 SUZ       0.037700
     35 H9A          7.5370     0.3780     1.0540 hc         1 SUZ       0.037700
     36 H9B          6.2050    -0.6680     1.5650 hc         1 SUZ       0.037700
     37 H4           1.8920    -0.0010     3.3660 ha         1 SUZ       0.147500
     38 H3          -0.5690     0.0050     3.3340 ha         1 SUZ       0.134000
     39 H1          -2.3310     2.2670     1.9920 h1         1 SUZ       0.071700
     40 H1A         -2.5770     2.2150     0.2410 h1         1 SUZ       0.071700
     41 H1B         -3.9320     1.9000     1.3350 h1         1 SUZ       0.071700
@<TRIPOS>BOND
     1     1    26 1
     2     2     1 ar
     3     2    27 1
     4     3     2 ar
     5     3     4 1
     6     4     5 2
     7     5    18 1
     8     5     6 1
     9     6     7 ar
    10     6    12 ar
    11     7     8 ar
    12     8    30 1
    13     8     9 ar
    14     9    10 1
    15    11     9 ar
    16    11    31 1
    17    12    11 ar
    18    13    12 1
    19    13    14 1
    20    14    32 1
    21    14    33 1
    22    15    14 1
    23    15    17 1
    24    16    15 1
    25    18    13 2
    26    19    18 1
    27    19    36 1
    28    20     3 ar
    29    20    21 ar
    30    21    22 ar
    31    22     1 ar
    32    22    23 1
    33    23    24 2
    34    23    25 1
    35    25    39 1
    36    25    40 1
    37    28     4 1
    38    29     7 1
    39    34    19 1
    40    35    19 1
    41    37    20 1
    42    38    21 1
    43    41    25 1
@<TRIPOS>SUBSTRUCTURE
     1 SUZ         1 TEMP              0 ****  ****    0 ROOT
