@<TRIPOS>MOLECULE
SV1
   38    39     1     0     0
SMALL
bcc


@<TRIPOS>ATOM
      1 O1           0.0000     0.0000     0.0000 o          1 SV1      -0.571000
      2 C8           1.2080     0.0000     0.0000 c          1 SV1       0.686100
      3 C7           1.9620     0.0000     1.3050 c3         1 SV1      -0.022100
      4 C6           0.9830     0.0010     2.4500 ca         1 SV1      -0.039300
      5 C5           0.6140     1.1910     3.0410 ca         1 SV1      -0.099000
      6 C4          -0.2850     1.1980     4.0920 ca         1 SV1      -0.078000
      7 C3          -0.8230     0.0050     4.5610 ca         1 SV1       0.016600
      8 N           -1.7310     0.0180     5.6240 nv         1 SV1      -0.560200
      9 C2          -0.4610    -1.1970     3.9760 ca         1 SV1      -0.041000
     10 C1           0.4430    -1.2050     2.9100 ca         1 SV1      -0.195600
     11 C            0.8290    -2.4770     2.2770 c          1 SV1       0.670500
     12 O            0.3600    -3.5200     2.6780 o          1 SV1      -0.558100
     13 O2           1.8790    -0.0060    -1.1630 os         1 SV1      -0.419900
     14 C9           1.0880    -0.0130    -2.3810 c3         1 SV1       0.227400
     15 C10          2.0200    -0.0200    -3.5940 c3         1 SV1       0.022900
     16 C11          1.1990    -0.0260    -4.8580 ca         1 SV1      -0.094300
     17 C16          0.8230     1.1690    -5.4440 ca         1 SV1      -0.094000
     18 C15          0.0700     1.1620    -6.6020 ca         1 SV1      -0.097500
     19 C14         -0.3070    -0.0370    -7.1760 ca         1 SV1      -0.099000
     20 C13          0.0700    -1.2320    -6.5910 ca         1 SV1      -0.097500
     21 C12          0.8270    -1.2260    -5.4350 ca         1 SV1      -0.094000
     22 H            1.5580    -2.4830     1.4760 h4         1 SV1      -0.039800
     23 H72          2.5850     0.8840     1.3620 hc         1 SV1       0.043200
     24 H71          2.5840    -0.8850     1.3630 hc         1 SV1       0.043200
     25 H5           1.0300     2.1250     2.6810 ha         1 SV1       0.106000
     26 H4          -0.5700     2.1360     4.5520 ha         1 SV1       0.108000
     27 HN1         -1.4000    -0.0570     6.5650 hn         1 SV1       0.274800
     28 HN2         -2.7120     0.0940     5.4430 hn         1 SV1       0.274800
     29 H2          -0.8820    -2.1270     4.3390 ha         1 SV1       0.127000
     30 H91C         0.4630     0.8710    -2.4110 h1         1 SV1       0.015700
     31 H92C         0.4630    -0.8980    -2.4010 h1         1 SV1       0.015700
     32 H101         2.6450    -0.9040    -3.5640 hc         1 SV1       0.025200
     33 H102         2.6450     0.8650    -3.5730 hc         1 SV1       0.025200
     34 H16          1.1190     2.1090    -4.9950 ha         1 SV1       0.106000
     35 H12          1.1220    -2.1620    -4.9760 ha         1 SV1       0.106000
     36 H15         -0.2250     2.0980    -7.0610 ha         1 SV1       0.103500
     37 H14         -0.8990    -0.0410    -8.0840 ha         1 SV1       0.103000
     38 H13         -0.2240    -2.1730    -7.0420 ha         1 SV1       0.103500
@<TRIPOS>BOND
     1     1     2 2   
     2     2     3 1   
     3     2    13 1   
     4     3     4 1   
     5     3    23 1   
     6     3    24 1   
     7     4     5 ar  
     8     4    10 ar  
     9     5     6 ar  
    10     5    25 1   
    11     6     7 ar  
    12     6    26 1   
    13     7     8 1   
    14     7     9 ar  
    15     8    27 1   
    16     8    28 1   
    17     9    10 ar  
    18     9    29 1   
    19    10    11 1   
    20    11    12 2   
    21    11    22 1   
    22    13    14 1   
    23    14    15 1   
    24    14    30 1   
    25    14    31 1   
    26    15    16 1   
    27    15    32 1   
    28    15    33 1   
    29    16    17 ar  
    30    16    21 ar  
    31    17    18 ar  
    32    17    34 1   
    33    18    19 ar  
    34    18    36 1   
    35    19    20 ar  
    36    19    37 1   
    37    20    21 ar  
    38    20    38 1   
    39    21    35 1   
@<TRIPOS>SUBSTRUCTURE
     1 SV1         1 TEMP              0 ****  ****    0 ROOT
