@<TRIPOS>MOLECULE
molecule
   38    39     1     0     0
SMALL
bcc


@<TRIPOS>ATOM
      1 O1           0.0000     0.0000     0.0000 o          1 SV1      -0.532000
      2 C8           1.2080     0.0000     0.0000 c          1 SV1       0.625100
      3 C7           1.9620     0.0000     1.3050 c3         1 SV1      -0.085100
      4 C6           0.9830     0.0010     2.4500 ca         1 SV1      -0.045300
      5 C5           0.6140     1.1910     3.0410 ca         1 SV1      -0.122000
      6 C4          -0.2850     1.1980     4.0920 ca         1 SV1      -0.113000
      7 C3          -0.8230     0.0050     4.5610 ca         1 SV1       0.155600
      8 N           -1.7310     0.0180     5.6240 nv         1 SV1      -0.990200
      9 C2          -0.4610    -1.1970     3.9760 ca         1 SV1      -0.081000
     10 C1           0.4430    -1.2050     2.9100 ca         1 SV1      -0.175600
     11 C            0.8290    -2.4770     2.2770 c          1 SV1       0.581500
     12 O            0.3600    -3.5200     2.6780 o          1 SV1      -0.523100
     13 O2           1.8790    -0.0060    -1.1630 os         1 SV1      -0.436900
     14 C9           1.0880    -0.0130    -2.3810 c3         1 SV1       0.151400
     15 C10          2.0200    -0.0200    -3.5940 c3         1 SV1      -0.037100
     16 C11          1.1990    -0.0260    -4.8580 ca         1 SV1      -0.090300
     17 C16          0.8230     1.1690    -5.4440 ca         1 SV1      -0.120000
     18 C15          0.0700     1.1620    -6.6020 ca         1 SV1      -0.125500
     19 C14         -0.3070    -0.0370    -7.1760 ca         1 SV1      -0.125000
     20 C13          0.0700    -1.2320    -6.5910 ca         1 SV1      -0.125500
     21 C12          0.8270    -1.2260    -5.4350 ca         1 SV1      -0.120000
     22 H            1.5580    -2.4830     1.4760 h4         1 SV1      -0.003800
     23 H72          2.5850     0.8840     1.3620 hc         1 SV1       0.080200
     24 H71          2.5840    -0.8850     1.3630 hc         1 SV1       0.080200
     25 H5           1.0300     2.1250     2.6810 ha         1 SV1       0.133000
     26 H4          -0.5700     2.1360     4.5520 ha         1 SV1       0.139000
     27 HN1         -1.4000    -0.0570     6.5650 hn         1 SV1       0.430300
     28 HN2         -2.7120     0.0940     5.4430 hn         1 SV1       0.430300
     29 H2          -0.8820    -2.1270     4.3390 ha         1 SV1       0.159000
     30 H91C         0.4630     0.8710    -2.4110 h1         1 SV1       0.055200
     31 H92C         0.4630    -0.8980    -2.4010 h1         1 SV1       0.055200
     32 H101         2.6450    -0.9040    -3.5640 hc         1 SV1       0.059700
     33 H102         2.6450     0.8650    -3.5730 hc         1 SV1       0.059700
     34 H16          1.1190     2.1090    -4.9950 ha         1 SV1       0.131500
     35 H12          1.1220    -2.1620    -4.9760 ha         1 SV1       0.131500
     36 H15         -0.2250     2.0980    -7.0610 ha         1 SV1       0.131500
     37 H14         -0.8990    -0.0410    -8.0840 ha         1 SV1       0.131000
     38 H13         -0.2240    -2.1730    -7.0420 ha         1 SV1       0.131500
@<TRIPOS>BOND
     1     1     2 2
     2     2     3 1
     3     2    13 1
     4     3     4 1
     5     4     5 ar
     6     4    10 ar
     7     5     6 ar
     8     6     7 ar
     9     7     8 1
    10     7     9 ar
    11     9    10 ar
    12    10    11 1
    13    11    12 2
    14    13    14 1
    15    14    15 1
    16    15    16 1
    17    16    17 ar
    18    16    21 ar
    19    17    18 ar
    20    18    19 ar
    21    19    20 ar
    22    20    21 ar
    23    11    22 1
    24     3    24 1
    25     3    23 1
    26     5    25 1
    27     6    26 1
    28     8    27 1
    29     8    28 1
    30     9    29 1
    31    14    30 1
    32    14    31 1
    33    15    32 1
    34    15    33 1
    35    17    34 1
    36    21    35 1
    37    18    36 1
    38    19    37 1
    39    20    38 1
@<TRIPOS>SUBSTRUCTURE
     1 SV1         1 TEMP              0 ****  ****    0 ROOT
