@<TRIPOS>MOLECULE
molecule
   43    44     1     0     0
SMALL
bcc


@<TRIPOS>ATOM
      1 OAE          0.0000     0.0000     0.0000 o          1 SV2      -0.790333
      2 PAZ          1.6090     0.0000     0.0000 p5         1 SV2       1.022200
      3 OAF          2.1460     0.0000     1.5190 o          1 SV2      -0.790333
      4 OAC          2.1030    -1.2080    -0.6970 o          1 SV2      -0.790333
      5 CAL          2.2180     1.4880    -0.8590 c3         1 SV2      -0.034300
      6 OAR          1.7420     1.4880    -2.2060 os         1 SV2      -0.443600
      7 CAJ          0.3590     1.8260    -2.3330 c3         1 SV2       0.122400
      8 CAX         -0.0390     1.7950    -3.8120 c3         1 SV2      -0.080700
      9 CAK          0.0780     0.3650    -4.3410 c3         1 SV2       0.122400
     10 OAS         -0.1600     0.3570    -5.7500 os         1 SV2      -0.443600
     11 CAM          0.0060    -0.9230    -6.3600 c3         1 SV2      -0.034300
     12 PBA         -1.4200    -1.9820    -5.9490 p5         1 SV2       1.022200
     13 OAG         -2.7830    -1.2310    -6.3620 o          1 SV2      -0.790333
     14 OAH         -1.3080    -3.3720    -6.7540 o          1 SV2      -0.790333
     15 OAD         -1.4290    -2.2540    -4.4940 o          1 SV2      -0.790333
     16 CAN         -1.4840     2.2770    -3.9600 c3         1 SV2       0.024300
     17 N9          -1.5730     3.6830    -3.5570 na         1 SV2      -0.165900
     18 C8          -1.9350     4.1470    -2.3270 cc         1 SV2       0.432400
     19 N7          -1.9000     5.4490    -2.3260 nd         1 SV2      -0.669000
     20 C5          -1.5150     5.8850    -3.5480 cd         1 SV2       0.203800
     21 C4          -1.3030     4.7640    -4.3400 cc         1 SV2       0.006000
     22 N3          -0.8980     4.9360    -5.6390 na         1 SV2      -0.659600
     23 C2          -0.7100     6.1840    -6.1430 cd         1 SV2       0.589100
     24 N2          -0.3050     6.3140    -7.4440 nz         1 SV2      -0.734600
     25 N1          -0.9050     7.2720    -5.4290 nc         1 SV2      -0.790100
     26 C6          -1.2950     7.2050    -4.1460 c          1 SV2       0.648000
     27 O6          -1.4660     8.2220    -3.4930 o          1 SV2      -0.607100
     28 H3           3.3010     1.4880    -0.8590 h1         1 SV2       0.023950
     29 H4           1.8570     2.3730    -0.3480 h1         1 SV2       0.023950
     30 H5          -0.2400     1.1110    -1.7830 h1         1 SV2       0.069700
     31 H6           0.1920     2.8190    -1.9350 h1         1 SV2       0.069700
     32 H7           0.6190     2.4450    -4.3770 hc         1 SV2       0.024700
     33 H8          -0.6540    -0.2640    -3.8480 h1         1 SV2       0.069700
     34 H9           1.0730    -0.0140    -4.1400 h1         1 SV2       0.069700
     35 H10          0.9150    -1.3840    -5.9930 h1         1 SV2       0.023950
     36 H11          0.0700    -0.8060    -7.4350 h1         1 SV2       0.023950
     37 H14         -2.1310     1.6790    -3.3300 h1         1 SV2       0.093200
     38 H15         -1.7940     2.1780    -4.9930 h1         1 SV2       0.093200
     39 H16         -2.2130     3.5290    -1.4820 h5         1 SV2       0.093100
     40 H17         -0.7420     4.1370    -6.2200 hn         1 SV2       0.444800
     41 H18         -0.9940     5.9150    -8.0500 hn         1 SV2       0.364133
     42 H19          0.5670     5.8400    -7.5710 hn         1 SV2       0.364133
     43 H23         -0.1910     7.2850    -7.6630 hn         1 SV2       0.364133
@<TRIPOS>BOND
     1    27    26 2
     2    19    18 2
     3    19    20 1
     4    15    12 1
     5    13    12 1
     6    18    17 1
     7    26    20 1
     8    26    25 1
     9    20    21 2
    10    12    14 1
    11    12    11 1
    12    10    11 1
    13    10     9 1
    14    25    23 2
    15    17    21 1
    16    17    16 1
    17    21    22 1
    18     9     8 1
    19    16     8 1
    20    23    22 1
    21    23    24 1
    22     8     7 1
    23     7     6 1
    24     6     5 1
    25     5     2 1
    26     4     2 1
    27     2     1 1
    28     2     3 1
    29     5    28 1
    30     5    29 1
    31     7    30 1
    32     7    31 1
    33     8    32 1
    34     9    33 1
    35     9    34 1
    36    11    35 1
    37    11    36 1
    38    16    37 1
    39    16    38 1
    40    18    39 1
    41    22    40 1
    42    24    41 1
    43    24    42 1
    44    43    24 1
@<TRIPOS>SUBSTRUCTURE
     1 SV2         1 TEMP              0 ****  ****    0 ROOT
