@<TRIPOS>MOLECULE
SV2
   42    43     1     0     0
SMALL
bcc


@<TRIPOS>ATOM
      1 OAE         0.7760    0.0630    1.8910 o         1 SV2     -0.956500
      2 PAZ         1.9660   -0.0140    0.9610 p5        1 SV2      1.212700
      3 OAF         3.2130    0.6390    1.5290 o         1 SV2     -0.956500
      4 OAC         2.2200   -1.3670    0.3440 o         1 SV2     -0.956500
      5 CAL         1.6010    1.1740   -0.3930 c3        1 SV2     -0.036800
      6 OAR         0.5130    0.6670   -1.1220 os        1 SV2     -0.362600
      7 CAJ        -0.2080    1.6180   -1.8850 c3        1 SV2      0.122400
      8 CAX         0.1600    1.6360   -3.3760 c3        1 SV2     -0.105700
      9 CAK         0.0880    0.2100   -3.9190 c3        1 SV2      0.133400
     10 OAS         0.3390    0.2080   -5.3310 os        1 SV2     -0.430600
     11 CAM         0.6330   -1.0840   -5.8320 c3        1 SV2     -0.115800
     12 PBA         0.5510   -1.0020   -7.5460 p5        1 SV2      1.347600
     13 OAG         0.7640    0.5850   -7.8890 oh        1 SV2     -0.785400
     14 OAH         1.7100   -1.7290   -8.1260 o         1 SV2     -0.882500
     15 OAD        -0.8270   -1.3420   -7.9880 o         1 SV2     -0.882500
     16 CAN        -0.8140    2.5230   -4.1680 c3        1 SV2      0.051300
     17 N9         -0.7380    3.9420   -3.9530 na        1 SV2     -0.213900
     18 C8          0.2940    4.6950   -3.3460 cc        1 SV2      0.371400
     19 N7          0.1380    6.0260   -3.4770 nc        1 SV2     -0.652000
     20 C5         -1.0340    6.1920   -4.2190 cd        1 SV2      0.118800
     21 C4         -1.5990    4.8930   -4.5350 cd        1 SV2     -0.032600
     22 N3         -2.7460    4.6940   -5.2570 nc        1 SV2     -0.544300
     23 C2         -3.3260    5.8840   -5.6580 cc        1 SV2      0.782200
     24 N2         -4.5800    5.7450   -6.3670 nh        1 SV2     -0.860800
     25 N1         -2.8910    7.1640   -5.4600 nd        1 SV2     -0.843100
     26 C6         -1.7280    7.3750   -4.7150 c         1 SV2      0.628000
     27 O6         -1.3250    8.5560   -4.5170 o         1 SV2     -0.723100
     28 H3          2.4840    1.3070   -1.0560 h1        1 SV2     -0.004800
     29 H4          1.3580    2.1470    0.0940 h1        1 SV2     -0.004800
     30 H5         -0.0890    2.6550   -1.4740 h1        1 SV2      0.017200
     31 H6         -1.2860    1.3080   -1.7890 h1        1 SV2      0.017200
     32 H7          1.2110    2.0080   -3.4970 hc        1 SV2      0.060700
     33 H8         -0.9360   -0.2200   -3.7510 h1        1 SV2      0.048200
     34 H9          0.8450   -0.4200   -3.3810 h1        1 SV2      0.048200
     35 H10        -0.1060   -1.8280   -5.4410 h1        1 SV2      0.044200
     36 H11         1.6440   -1.4010   -5.4710 h1        1 SV2      0.044200
     37 H14        -0.6420    2.3300   -5.2700 h1        1 SV2      0.053700
     38 H15        -1.8680    2.2010   -3.9270 h1        1 SV2      0.053700
     39 H16         1.1020    4.1960   -2.8000 h5        1 SV2      0.060100
     40 H17         0.2240    1.1640   -7.3630 ho        1 SV2      0.431000
     41 H18        -4.6750    6.4600   -7.0600 hn        1 SV2      0.349800
     42 H19        -4.6490    4.8440   -6.7990 hn        1 SV2      0.349800
@<TRIPOS>BOND
     1    1    2 1   
     2    2    3 1   
     3    2    4 1   
     4    2    5 1   
     5    5    6 1   
     6    5   28 1   
     7    5   29 1   
     8    6    7 1   
     9    7    8 1   
    10    7   30 1   
    11    7   31 1   
    12    8    9 1   
    13    8   16 1   
    14    8   32 1   
    15    9   10 1   
    16    9   33 1   
    17    9   34 1   
    18   10   11 1   
    19   11   12 1   
    20   11   35 1   
    21   11   36 1   
    22   12   13 1   
    23   12   14 1   
    24   12   15 1   
    25   13   40 1   
    26   16   17 1   
    27   16   37 1   
    28   16   38 1   
    29   17   18 2   
    30   17   21 1   
    31   18   19 1   
    32   18   39 1   
    33   19   20 2   
    34   20   21 1   
    35   20   26 1   
    36   21   22 2   
    37   22   23 1   
    38   23   24 1   
    39   23   25 2   
    40   24   41 1   
    41   24   42 1   
    42   25   26 1   
    43   26   27 2   
@<TRIPOS>SUBSTRUCTURE
     1 SV2         1 TEMP              0 ****  ****    0 ROOT
