@<TRIPOS>MOLECULE
molecule
   15    15     1     0     0
SMALL
bcc


@<TRIPOS>ATOM
      1 OAA          0.0000     0.0000     0.0000 o          1 SV7      -0.905167
      2 PAB          1.6100     0.0000     0.0000 p5         1 SV7       1.062000
      3 OAC          2.1460     0.0000     1.5180 o          1 SV7      -0.905167
      4 OAD          2.1040    -1.2090    -0.6970 o          1 SV7      -0.905167
      5 CAE          2.2150     1.4810    -0.8550 ca         1 SV7      -0.142500
      6 CAF          3.5700     1.7530    -0.8910 ca         1 SV7      -0.077500
      7 CAG          4.0300     2.8820    -1.5430 ca         1 SV7      -0.185500
      8 CAH          3.1360     3.7380    -2.1590 ca         1 SV7      -0.181000
      9 CAI          1.7810     3.4650    -2.1230 ca         1 SV7      -0.185500
     10 CAJ          1.3210     2.3340    -1.4750 ca         1 SV7      -0.077500
     11 HAF          4.2700     1.0820    -0.4090 ha         1 SV7       0.141500
     12 HAJ          0.2590     2.1200    -1.4470 ha         1 SV7       0.141500
     13 HAG          5.0920     3.0950    -1.5710 ha         1 SV7       0.075500
     14 HAH          3.4970     4.6240    -2.6680 ha         1 SV7       0.068000
     15 HAI          1.0810     4.1350    -2.6070 ha         1 SV7       0.075500
@<TRIPOS>BOND
     1     1     2 1
     2     2     3 1
     3     2     4 1
     4     2     5 1
     5     5     6 ar
     6     5    10 ar
     7     6     7 ar
     8     7     8 ar
     9     8     9 ar
    10     9    10 ar
    11     6    11 1
    12    10    12 1
    13     7    13 1
    14     8    14 1
    15     9    15 1
@<TRIPOS>SUBSTRUCTURE
     1 SV7         1 TEMP              0 ****  ****    0 ROOT
