@<TRIPOS>MOLECULE
SV7
   15    15     1     0     0
SMALL
bcc


@<TRIPOS>ATOM
      1 OAA         0.1530    0.3370    0.2960 o         1 SV7     -0.952500
      2 PAB         1.5980    0.0020   -0.0050 p5        1 SV7      1.235000
      3 OAC         2.5060   -0.1140    1.2020 o         1 SV7     -0.952500
      4 OAD         1.7900   -1.0830   -1.0410 o         1 SV7     -0.952500
      5 CAE         2.1910    1.4500   -0.8230 ca        1 SV7     -0.152500
      6 CAF         3.5280    1.8010   -0.7220 ca        1 SV7     -0.079000
      7 CAG         4.0090    2.9310   -1.3880 ca        1 SV7     -0.193000
      8 CAH         3.1340    3.7090   -2.1510 ca        1 SV7     -0.189000
      9 CAI         1.7850    3.3590   -2.2400 ca        1 SV7     -0.193000
     10 CAJ         1.3180    2.2260   -1.5690 ca        1 SV7     -0.079000
     11 HAF         4.1670    1.1660   -0.0870 ha        1 SV7      0.152000
     12 HAJ         0.2600    1.9180   -1.5840 ha        1 SV7      0.152000
     13 HAG         5.0670    3.2160   -1.3150 ha        1 SV7      0.070000
     14 HAH         3.5080    4.5970   -2.6790 ha        1 SV7      0.063000
     15 HAI         1.1010    3.9790   -2.8350 ha        1 SV7      0.070000
@<TRIPOS>BOND
     1    1    2 1   
     2    2    3 1   
     3    2    4 1   
     4    2    5 1   
     5    5    6 ar  
     6    5   10 ar  
     7    6    7 ar  
     8    6   11 1   
     9    7    8 ar  
    10    7   13 1   
    11    8    9 ar  
    12    8   14 1   
    13    9   10 ar  
    14    9   15 1   
    15   10   12 1   
@<TRIPOS>SUBSTRUCTURE
     1 SV7         1 TEMP              0 ****  ****    0 ROOT
