@<TRIPOS>MOLECULE
molecule
   45    47     1     0     0
SMALL
bcc


@<TRIPOS>ATOM
      1 Cl1          0.0000     0.0000     0.0000 cl         1 SVB      -0.077400
      2 C1           1.7370     0.0000     0.0000 ca         1 SVB       0.055400
      3 C2           2.4380     0.0000     1.2120 ca         1 SVB      -0.074800
      4 C3           1.7090    -0.0000     2.4880 ce         1 SVB       0.029800
      5 C4           2.0280    -0.9000     3.4520 cd         1 SVB      -0.111600
      6 S5           3.2830    -2.1550     3.4010 ss         1 SVB      -0.047200
      7 C6           2.9360    -2.7660     5.0290 cs         1 SVB       0.428000
      8 N7           1.9330    -2.0270     5.5170 n          1 SVB      -0.387400
      9 C8           1.4100    -2.2890     6.8590 c3         1 SVB       0.010000
     10 C9           1.4210    -1.0560     4.7790 c          1 SVB       0.703700
     11 O10          0.5120    -0.3470     5.1710 o          1 SVB      -0.573500
     12 S11          3.7320    -4.0550     5.8240 s          1 SVB      -0.450400
     13 C12          3.8390     0.0000     1.2020 ca         1 SVB       0.037400
     14 Cl2          4.7220    -0.0010     2.6960 cl         1 SVB      -0.025400
     15 C13          4.5150    -0.0010    -0.0030 ca         1 SVB       0.029400
     16 Cl3          6.2510    -0.0030    -0.0210 cl         1 SVB      -0.066400
     17 C14          3.8120    -0.0010    -1.1960 ca         1 SVB      -0.092000
     18 C15          2.4290    -0.0060    -1.1940 ca         1 SVB      -0.114000
     19 H1           0.9130     0.7150     2.6570 ha         1 SVB       0.181000
     20 H3           0.3600    -2.0250     6.8960 h1         1 SVB       0.100700
     21 H4           1.5270    -3.3400     7.0940 h1         1 SVB       0.100700
     22 H6           4.3490    -0.0040    -2.1370 ha         1 SVB       0.160000
     23 H7           1.8880    -0.0060    -2.1320 ha         1 SVB       0.159000
     24 C5           2.1710    -1.4620     7.8640 c          1 SVB       0.665100
     25 N1           1.8600    -1.5390     9.1740 ns         1 SVB      -0.458300
     26 H8           1.0570    -2.0590     9.4670 hn         1 SVB       0.294500
     27 N2           2.6150    -0.8690    10.0950 n3         1 SVB      -0.435600
     28 C11          3.1220    -1.7850    11.1260 c3         1 SVB       0.143300
     29 C7           4.0240    -1.0140    12.0910 c3         1 SVB       0.165800
     30 N3           3.2620     0.0870    12.6970 n3         1 SVB      -0.740600
     31 C17          2.7540     1.0030    11.6660 c3         1 SVB       0.165800
     32 C18          1.8520     0.2300    10.7010 c3         1 SVB       0.143300
     33 C10          4.0730     0.8070    13.6880 c3         1 SVB       0.153100
     34 O1           3.0620    -0.7270     7.4950 o          1 SVB      -0.559100
     35 H2           3.6920    -2.5770    10.6550 h1         1 SVB       0.048950
     36 H5           2.2890    -2.2090    11.6730 h1         1 SVB       0.048950
     37 H9           4.3740    -1.6810    12.8690 h1         1 SVB       0.047700
     38 H10          4.8700    -0.6090    11.5470 h1         1 SVB       0.047700
     39 H11          3.5870     1.4270    11.1190 h1         1 SVB       0.047700
     40 H12          2.1830     1.7950    12.1370 h1         1 SVB       0.047700
     41 H13          1.0070    -0.1740    11.2450 h1         1 SVB       0.048950
     42 H14          1.5020     0.8980     9.9230 h1         1 SVB       0.048950
     43 H15          4.4060     0.1160    14.4530 h1         1 SVB       0.033700
     44 H16          3.4770     1.5900    14.1430 h1         1 SVB       0.033700
     45 H17          4.9340     1.2470    13.1990 h1         1 SVB       0.033700
@<TRIPOS>BOND
     1    16    15 1
     2    14    13 1
     3    15    13 ar
     4    15    17 ar
     5    13     3 ar
     6    17    18 ar
     7    18     2 ar
     8     3     2 ar
     9     3     4 1
    10     2     1 1
    11     6     5 1
    12     6     7 1
    13     4     5 2
    14     5    10 1
    15     7    12 2
    16     7     8 1
    17    10     8 1
    18    10    11 2
    19     8     9 1
    20     4    19 1
    21     9    20 1
    22     9    21 1
    23    17    22 1
    24    18    23 1
    25     9    24 1
    26    24    25 1
    27    25    26 1
    28    25    27 1
    29    27    28 1
    30    28    29 1
    31    29    30 1
    32    30    31 1
    33    31    32 1
    34    32    27 1
    35    30    33 1
    36    24    34 2
    37    28    35 1
    38    28    36 1
    39    29    37 1
    40    29    38 1
    41    31    39 1
    42    31    40 1
    43    32    41 1
    44    32    42 1
    45    33    43 1
    46    33    44 1
    47    33    45 1
@<TRIPOS>SUBSTRUCTURE
     1 SVB         1 TEMP              0 ****  ****    0 ROOT
