@<TRIPOS>MOLECULE
molecule
   71    70     1     0     0
SMALL
bcc


@<TRIPOS>ATOM
      1 CAA          0.0000     0.0000     0.0000 c          1 SVC       0.668100
      2 OAB          1.2120     0.0000     0.0000 o          1 SVC      -0.591100
      3 CAC         -0.7540     0.0000     1.3050 c3         1 SVC      -0.169100
      4 N           -0.6750     0.0060    -1.1670 ns         1 SVC      -0.579900
      5 CA           0.0580     0.0060    -2.4360 c3         1 SVC       0.056700
      6 C            0.9190    -1.2280    -2.5190 c          1 SVC       0.645100
      7 O            1.2120    -1.8330    -1.5090 o          1 SVC      -0.580100
      8 CB           0.9430     1.2520    -2.5140 c3         1 SVC      -0.094400
      9 CG           0.0640     2.5040    -2.4850 c3         1 SVC      -0.075700
     10 CD1          0.9530     3.7480    -2.4090 c3         1 SVC      -0.089600
     11 CD2         -0.7840     2.5610    -3.7560 c3         1 SVC      -0.089600
     12 NAL          1.3630    -1.6600    -3.7160 ns         1 SVC      -0.581900
     13 CAM          2.1050    -2.9200    -3.8100 c3         1 SVC       0.047700
     14 CAN          3.0410    -2.8640    -4.9890 c          1 SVC       0.656100
     15 OAO          2.8200    -2.0980    -5.9040 o          1 SVC      -0.611100
     16 CAP          1.1230    -4.0790    -3.9920 c3         1 SVC      -0.087400
     17 CAQ          1.8960    -5.3970    -4.0570 c3         1 SVC      -0.095700
     18 CAS          2.5570    -5.6680    -2.7040 c3         1 SVC      -0.089600
     19 CAR          0.9330    -6.5370    -4.3910 c3         1 SVC      -0.089600
     20 OAW          4.6200    -5.7500    -6.9740 oh         1 SVC      -0.622800
     21 NAT          4.1250    -3.6650    -5.0290 ns         1 SVC      -0.583900
     22 NBA          8.8590    -2.7910    -3.0110 nu         1 SVC      -0.856200
     23 NBC         10.5300    -2.2850    -1.4830 n2         1 SVC      -0.778100
     24 NBD         10.8220    -4.1300    -2.8590 nz         1 SVC      -0.805600
     25 CAU          5.0900    -3.5380    -6.1230 c3         1 SVC       0.126700
     26 CAX          6.4560    -4.0480    -5.6590 c3         1 SVC      -0.091400
     27 CAY          6.9860    -3.1440    -4.5430 c3         1 SVC      -0.094400
     28 CAZ          8.3510    -3.6550    -4.0790 c3         1 SVC       0.202800
     29 CBB         10.0780    -3.0550    -2.4330 c2         1 SVC       0.696100
     30 CAV          4.6180    -4.3630    -7.3210 c3         1 SVC       0.123400
     31 HAC1        -1.4370     0.8400     1.3280 hc         1 SVC       0.061367
     32 HAC2        -1.3130    -0.9230     1.4000 hc         1 SVC       0.061367
     33 HAC3        -0.0520     0.0830     2.1270 hc         1 SVC       0.061367
     34 HN          -1.6740    -0.0400    -1.1670 hn         1 SVC       0.318500
     35 HA          -0.6460     0.0110    -3.2590 h1         1 SVC       0.069700
     36 HB1          1.6210     1.2660    -1.6690 hc         1 SVC       0.068200
     37 HB2          1.5140     1.2320    -3.4340 hc         1 SVC       0.068200
     38 HG          -0.5850     2.4700    -1.6180 hc         1 SVC       0.056700
     39 HD11         1.5740     3.8020    -3.2950 hc         1 SVC       0.035200
     40 HD12         0.3310     4.6330    -2.3500 hc         1 SVC       0.035200
     41 HD13         1.5820     3.6890    -1.5290 hc         1 SVC       0.035200
     42 HD21        -1.4980     1.7460    -3.7520 hc         1 SVC       0.035200
     43 HD22        -1.3150     3.5050    -3.7940 hc         1 SVC       0.035200
     44 HD23        -0.1410     2.4730    -4.6240 hc         1 SVC       0.035200
     45 HNAL         1.2070    -1.1090    -4.5370 hn         1 SVC       0.335500
     46 HAM          2.6770    -3.0700    -2.9020 h1         1 SVC       0.090700
     47 HAP1         0.4360    -4.1040    -3.1550 hc         1 SVC       0.066200
     48 HAP2         0.5680    -3.9400    -4.9110 hc         1 SVC       0.066200
     49 HAQ          2.6580    -5.3320    -4.8250 hc         1 SVC       0.057700
     50 HAS1         3.2570    -6.4880    -2.8020 hc         1 SVC       0.037033
     51 HAS2         1.7970    -5.9260    -1.9770 hc         1 SVC       0.037033
     52 HAS3         3.0840    -4.7800    -2.3760 hc         1 SVC       0.037033
     53 HAR1         0.1570    -6.5870    -3.6360 hc         1 SVC       0.037033
     54 HAR2         0.4830    -6.3590    -5.3600 hc         1 SVC       0.037033
     55 HAR3         1.4760    -7.4750    -4.4120 hc         1 SVC       0.037033
     56 HOAW         4.5020    -6.2690    -7.7530 ho         1 SVC       0.414000
     57 HNAT         4.2940    -4.3140    -4.2860 hn         1 SVC       0.325500
     58 HNBA         8.3170    -2.0080    -2.7010 hn         1 SVC       0.514800
     59 HNBC        11.4180    -2.4760    -1.0620 hn         1 SVC       0.440400
     60 HBD1        10.9800    -4.0570    -3.8450 hn         1 SVC       0.467467
     61 HBD2        11.7000    -4.1390    -2.3800 hn         1 SVC       0.467467
     62 HAU          5.1730    -2.4970    -6.4120 h1         1 SVC       0.087700
     63 HAX1         6.3560    -5.0600    -5.2870 hc         1 SVC       0.061700
     64 HAX2         7.1480    -4.0360    -6.4920 hc         1 SVC       0.061700
     65 HAY1         6.2940    -3.1560    -3.7100 hc         1 SVC       0.071700
     66 HAY2         7.0860    -2.1320    -4.9150 hc         1 SVC       0.071700
     67 HAZ1         8.2510    -4.6680    -3.7080 h1         1 SVC       0.038700
     68 HAZ2         9.0430    -3.6430    -4.9130 h1         1 SVC       0.038700
     69 HAV1         5.2850    -4.1990    -8.1580 h1         1 SVC       0.044700
     70 HAV2         3.6140    -4.0610    -7.5940 h1         1 SVC       0.044700
     71 HBD3        10.3260    -4.9770    -2.6630 hn         1 SVC       0.467467
@<TRIPOS>BOND
     1    10     9 1
     2    10    39 1
     3    10    40 1
     4    10    41 1
     5     9     8 1
     6     9    11 1
     7     9    38 1
     8    11    42 1
     9    11    43 1
    10    11    44 1
    11     8     5 1
    12     8    36 1
    13     8    37 1
    14     5     6 1
    15     5     4 1
    16     5    35 1
    17     4     1 1
    18     4    34 1
    19     1     3 1
    20     1     2 2
    21     3    31 1
    22     3    32 1
    23     3    33 1
    24     6     7 2
    25     6    12 1
    26    12    13 1
    27    12    45 1
    28    13    14 1
    29    13    16 1
    30    13    46 1
    31    16    17 1
    32    16    47 1
    33    16    48 1
    34    17    18 1
    35    17    19 1
    36    17    49 1
    37    18    50 1
    38    18    51 1
    39    18    52 1
    40    19    53 1
    41    19    54 1
    42    19    55 1
    43    14    15 2
    44    14    21 1
    45    21    25 1
    46    21    57 1
    47    25    26 1
    48    25    30 1
    49    25    62 1
    50    20    30 1
    51    20    56 1
    52    26    27 1
    53    26    63 1
    54    26    64 1
    55    27    28 1
    56    27    65 1
    57    27    66 1
    58    28    22 1
    59    28    67 1
    60    28    68 1
    61    22    29 1
    62    22    58 1
    63    29    24 1
    64    29    23 2
    65    24    60 1
    66    24    61 1
    67    23    59 1
    68    30    69 1
    69    30    70 1
    70    71    24 1
@<TRIPOS>SUBSTRUCTURE
     1 SVC         1 TEMP              0 ****  ****    0 ROOT
