@<TRIPOS>MOLECULE
SVC
   71    70     1     0     0
SMALL
bcc


@<TRIPOS>ATOM
      1 CAA          0.0000     0.0000     0.0000 c          1 SVC       0.585100
      2 OAB          1.2120     0.0000     0.0000 o          1 SVC      -0.630100
      3 CAC         -0.7540     0.0000     1.3050 c3         1 SVC      -0.063100
      4 N           -0.6750     0.0060    -1.1670 ns         1 SVC      -0.185900
      5 CA           0.0580     0.0060    -2.4360 c3         1 SVC      -0.035300
      6 C            0.9190    -1.2280    -2.5190 c          1 SVC       0.558100
      7 O            1.2120    -1.8330    -1.5090 o          1 SVC      -0.620100
      8 CB           0.9430     1.2520    -2.5140 c3         1 SVC      -0.058400
      9 CG           0.0640     2.5040    -2.4850 c3         1 SVC      -0.054700
     10 CD1          0.9530     3.7480    -2.4090 c3         1 SVC       0.003900
     11 CD2         -0.7840     2.5610    -3.7560 c3         1 SVC       0.003900
     12 NAL          1.3630    -1.6600    -3.7160 ns         1 SVC      -0.189900
     13 CAM          2.1050    -2.9200    -3.8100 c3         1 SVC      -0.056300
     14 CAN          3.0410    -2.8640    -4.9890 c          1 SVC       0.575100
     15 OAO          2.8200    -2.0980    -5.9040 o          1 SVC      -0.646100
     16 CAP          1.1230    -4.0790    -3.9920 c3         1 SVC      -0.036400
     17 CAQ          1.8960    -5.3970    -4.0570 c3         1 SVC      -0.079700
     18 CAS          2.5570    -5.6680    -2.7040 c3         1 SVC       0.006400
     19 CAR          0.9330    -6.5370    -4.3910 c3         1 SVC       0.006400
     20 OAW          4.6200    -5.7500    -6.9740 oh         1 SVC      -0.608800
     21 NAT          4.1250    -3.6650    -5.0290 ns         1 SVC      -0.204900
     22 NBA          8.8590    -2.7910    -3.0110 nu         1 SVC      -0.496200
     23 NBC         10.5300    -2.2850    -1.4830 n2         1 SVC      -0.613100
     24 NBD         10.8220    -4.1300    -2.8590 nz         1 SVC       0.190400
     25 CAU          5.0900    -3.5380    -6.1230 c3         1 SVC       0.020700
     26 CAX          6.4560    -4.0480    -5.6590 c3         1 SVC      -0.034400
     27 CAY          6.9860    -3.1440    -4.5430 c3         1 SVC      -0.034400
     28 CAZ          8.3510    -3.6550    -4.0790 c3         1 SVC       0.141800
     29 CBB         10.0780    -3.0550    -2.4330 c2         1 SVC       0.253100
     30 CAV          4.6180    -4.3630    -7.3210 c3         1 SVC       0.205400
     31 HAC1        -0.4480     0.8530     1.8990 hc         1 SVC       0.022033
     32 HAC2        -1.8170     0.0590     1.1080 hc         1 SVC       0.022033
     33 HAC3        -0.5370    -0.9130     1.8470 hc         1 SVC       0.022033
     34 HN          -1.6740    -0.0400    -1.1670 hn         1 SVC       0.174500
     35 HA          -0.6460     0.0110    -3.2590 h1         1 SVC       0.041700
     36 HB1          1.5140     1.2320    -3.4340 hc         1 SVC       0.045200
     37 HB2          1.6210     1.2660    -1.6690 hc         1 SVC       0.045200
     38 HG          -0.5850     2.4700    -1.6180 hc         1 SVC       0.029700
     39 HD11         1.5860     3.6870    -1.5320 hc         1 SVC       0.004533
     40 HD12         1.5710     3.8050    -3.2970 hc         1 SVC       0.004533
     41 HD13         0.3310     4.6330    -2.3440 hc         1 SVC       0.004533
     42 HD21        -0.2000     2.2050    -4.5970 hc         1 SVC       0.004533
     43 HD22        -1.0930     3.5830    -3.9380 hc         1 SVC       0.004533
     44 HD23        -1.6600     1.9350    -3.6350 hc         1 SVC       0.004533
     45 HNAL         1.1630    -1.1350    -4.5440 hn         1 SVC       0.199500
     46 HAM          2.6770    -3.0700    -2.9020 h1         1 SVC       0.069700
     47 HAP1         0.4360    -4.1040    -3.1550 hc         1 SVC       0.036700
     48 HAP2         0.5680    -3.9400    -4.9110 hc         1 SVC       0.036700
     49 HAQ          2.6580    -5.3320    -4.8250 hc         1 SVC       0.033700
     50 HAS1         3.0190    -6.6470    -2.7170 hc         1 SVC       0.006033
     51 HAS2         1.8070    -5.6330    -1.9230 hc         1 SVC       0.006033
     52 HAS3         3.3110    -4.9140    -2.5140 hc         1 SVC       0.006033
     53 HAR1         0.4610    -6.3440    -5.3470 hc         1 SVC       0.006033
     54 HAR2         1.4810    -7.4710    -4.4410 hc         1 SVC       0.006033
     55 HAR3         0.1740    -6.6050    -3.6210 hc         1 SVC       0.006033
     56 HOAW         4.4240    -6.2660    -7.7390 ho         1 SVC       0.406000
     57 HNAT         4.2940    -4.3140    -4.2860 hn         1 SVC       0.194500
     58 HNBA         8.3170    -2.0080    -2.7010 hn         1 SVC       0.346800
     59 HNBC         9.9890    -1.5020    -1.1730 hn         1 SVC       0.380400
     60 HBD1        10.3030    -4.9730    -2.7140 hn         1 SVC       0.225133
     61 HBD2        11.0280    -4.0280    -3.8330 hn         1 SVC       0.225133
     62 HAU          5.1730    -2.4970    -6.4120 h1         1 SVC       0.061700
     63 HAX1         7.1480    -4.0360    -6.4920 hc         1 SVC       0.034200
     64 HAX2         6.3560    -5.0600    -5.2870 hc         1 SVC       0.034200
     65 HAY1         6.2940    -3.1560    -3.7100 hc         1 SVC       0.036200
     66 HAY2         7.0860    -2.1320    -4.9150 hc         1 SVC       0.036200
     67 HAZ1         9.0430    -3.6430    -4.9130 h1         1 SVC       0.015200
     68 HAZ2         8.2510    -4.6680    -3.7080 h1         1 SVC       0.015200
     69 HAV1         5.2850    -4.1990    -8.1580 h1         1 SVC       0.009700
     70 HAV2         3.6140    -4.0610    -7.5940 h1         1 SVC       0.009700
     71 HBD3        11.6760    -4.1710    -2.3400 hn         1 SVC       0.225133
@<TRIPOS>BOND
     1     1     2 2   
     2     1     3 1   
     3     1     4 1   
     4     3    31 1   
     5     3    32 1   
     6     3    33 1   
     7     4     5 1   
     8     4    34 1   
     9     5     6 1   
    10     5     8 1   
    11     5    35 1   
    12     6     7 2   
    13     6    12 1   
    14     8     9 1   
    15     8    36 1   
    16     8    37 1   
    17     9    10 1   
    18     9    11 1   
    19     9    38 1   
    20    10    39 1   
    21    10    40 1   
    22    10    41 1   
    23    11    42 1   
    24    11    43 1   
    25    11    44 1   
    26    12    13 1   
    27    12    45 1   
    28    13    14 1   
    29    13    16 1   
    30    13    46 1   
    31    14    15 2   
    32    14    21 1   
    33    16    17 1   
    34    16    47 1   
    35    16    48 1   
    36    17    18 1   
    37    17    19 1   
    38    17    49 1   
    39    18    50 1   
    40    18    51 1   
    41    18    52 1   
    42    19    53 1   
    43    19    54 1   
    44    19    55 1   
    45    20    30 1   
    46    20    56 1   
    47    21    25 1   
    48    21    57 1   
    49    22    28 1   
    50    22    29 1   
    51    22    58 1   
    52    23    29 2   
    53    23    59 1   
    54    24    29 1   
    55    24    60 1   
    56    24    61 1   
    57    24    71 1   
    58    25    26 1   
    59    25    30 1   
    60    25    62 1   
    61    26    27 1   
    62    26    63 1   
    63    26    64 1   
    64    27    28 1   
    65    27    65 1   
    66    27    66 1   
    67    28    67 1   
    68    28    68 1   
    69    30    69 1   
    70    30    70 1   
@<TRIPOS>SUBSTRUCTURE
     1 SVC         1 TEMP              0 ****  ****    0 ROOT
