@<TRIPOS>MOLECULE
molecule
   88    93     1     0     0
SMALL
bcc


@<TRIPOS>ATOM
      1 C1           0.0000     0.0000     0.0000 c3         1 SVE      -0.005100
      2 C2           1.5280     0.0000     0.0000 c3         1 SVE      -0.024100
      3 C3          -0.5090     0.9960     1.0010 cc         1 SVE      -0.178600
      4 C4           0.1700     1.2880     2.1640 cd         1 SVE      -0.220800
      5 N5          -0.5710     2.1920     2.8360 na         1 SVE       0.189400
      6 N6          -1.6300     2.4790     2.1550 nd         1 SVE      -0.511800
      7 C7          -1.6580     1.7880     1.0250 cc         1 SVE       0.261800
      8 C8          -2.7060     1.8450    -0.0140 c          1 SVE       0.604600
      9 N9          -3.7660     2.6620     0.1430 ns         1 SVE      -0.465100
     10 O10         -2.6120     1.1550    -1.0110 o          1 SVE      -0.585100
     11 C11         -0.2260     2.7640     4.1410 c3         1 SVE       0.053600
     12 C12          1.4680     0.6520     2.4460 ca         1 SVE       0.592800
     13 C13          2.1090     0.0000     1.3840 ca         1 SVE      -0.358900
     14 C14          3.3050    -0.6410     1.6470 ca         1 SVE       0.496200
     15 N15          3.8050    -0.5960     2.8730 nb         1 SVE      -0.792000
     16 C16          3.1860     0.0530     3.8490 ca         1 SVE       0.935900
     17 N17          2.0300     0.6720     3.6450 nb         1 SVE      -0.794000
     18 N18          3.7580     0.0860     5.1090 nu         1 SVE      -0.740300
     19 C19          5.0300    -0.4470     5.3110 ca         1 SVE       0.185600
     20 C20          5.4020    -0.9050     6.5770 ca         1 SVE       0.068100
     21 C21          6.6620    -1.4320     6.7790 ca         1 SVE      -0.119000
     22 C22          7.5630    -1.5080     5.7120 ca         1 SVE      -0.137600
     23 C23          7.1860    -1.0500     4.4480 ca         1 SVE      -0.106000
     24 C24          5.9250    -0.5290     4.2500 ca         1 SVE      -0.126000
     25 O25          4.5230    -0.8280     7.6130 os         1 SVE      -0.352900
     26 C26          8.9100    -2.0720     5.9220 c          1 SVE       0.676700
     27 N27          9.7780    -2.1440     4.8930 ns         1 SVE      -0.578900
     28 O28          9.2370    -2.4700     7.0230 o          1 SVE      -0.608100
     29 C29         11.1160    -2.7030     5.1020 c3         1 SVE       0.116700
     30 C30         12.0770    -2.1360     4.0540 c3         1 SVE      -0.093400
     31 C31         13.4580    -2.7700     4.2380 c3         1 SVE       0.165800
     32 N32         13.3520    -4.2280     4.0940 n3         1 SVE      -0.734600
     33 C33         12.4720    -4.7990     5.1210 c3         1 SVE       0.165800
     34 C34         11.0610    -4.2270     4.9620 c3         1 SVE      -0.093400
     35 C35         14.6790    -4.8580     4.1270 c3         1 SVE       0.154100
     36 C36          4.9700    -1.3140     8.8800 c3         1 SVE       0.797700
     37 F37          6.0950    -0.5890     9.2870 f          1 SVE      -0.200967
     38 F38          3.9490    -1.1630     9.8240 f          1 SVE      -0.200967
     39 F39          5.3040    -2.6690     8.7680 f          1 SVE      -0.200967
     40 C40         -4.7360     2.7490    -0.8600 ca         1 SVE       0.045600
     41 C41         -4.3590     3.0150    -2.1710 ca         1 SVE      -0.072800
     42 C42         -5.3180     3.1010    -3.1600 ca         1 SVE      -0.124500
     43 C43         -6.6540     2.9240    -2.8470 ca         1 SVE      -0.128000
     44 C44         -7.0330     2.6600    -1.5440 ca         1 SVE      -0.124500
     45 C45         -6.0780     2.5670    -0.5510 ca         1 SVE      -0.072800
     46 C46         -6.4900     2.2730     0.8680 c3         1 SVE      -0.052100
     47 C47         -6.6220     3.5860     1.6440 c3         1 SVE      -0.088100
     48 C48         -2.9040     3.2080    -2.5120 c3         1 SVE      -0.052100
     49 C49         -2.6460     2.7210    -3.9400 c3         1 SVE      -0.088100
     50 H10         -0.3480     0.2880    -0.9850 hc         1 SVE       0.075200
     51 H11         -0.3480    -0.9860     0.2830 hc         1 SVE       0.075200
     52 H20          1.8540     0.9090    -0.4900 hc         1 SVE       0.059200
     53 H21          1.8540    -0.9090    -0.4900 hc         1 SVE       0.059200
     54 H111         0.7480     3.2350     4.0820 h1         1 SVE       0.069033
     55 H112        -0.9680     3.5020     4.4190 h1         1 SVE       0.069033
     56 H113        -0.2020     1.9770     4.8850 h1         1 SVE       0.069033
     57 H9          -3.8350     3.2400     0.9570 hn         1 SVE       0.338500
     58 H14          3.8250    -1.1770     0.8610 h4         1 SVE       0.036100
     59 H18          3.2720     0.5210     5.8680 hn         1 SVE       0.477800
     60 H24          5.6350    -0.1740     3.2690 ha         1 SVE       0.182000
     61 H22          6.9510    -1.7870     7.7600 ha         1 SVE       0.178000
     62 H23          7.8820    -1.1100     3.6200 ha         1 SVE       0.132000
     63 H27          9.5180    -1.7930     3.9930 hn         1 SVE       0.314500
     64 H29         11.4710    -2.4450     6.0920 h1         1 SVE       0.078700
     65 H301        11.7050    -2.3640     3.0620 hc         1 SVE       0.055700
     66 H302        12.1540    -1.0620     4.1790 hc         1 SVE       0.055700
     67 H341        10.6750    -4.4860     3.9830 hc         1 SVE       0.055700
     68 H342        10.4170    -4.6370     5.7300 hc         1 SVE       0.055700
     69 H311        14.1340    -2.3830     3.4860 h1         1 SVE       0.037700
     70 H312        13.8330    -2.5330     5.2260 h1         1 SVE       0.037700
     71 H331        12.4380    -5.8760     5.0060 h1         1 SVE       0.037700
     72 H332        12.8540    -4.5470     6.1030 h1         1 SVE       0.037700
     73 H351        15.2970    -4.4390     3.3430 h1         1 SVE       0.032700
     74 H352        14.5760    -5.9250     3.9750 h1         1 SVE       0.032700
     75 H353        15.1420    -4.6730     5.0890 h1         1 SVE       0.032700
     76 H42         -5.0250     3.3080    -4.1820 ha         1 SVE       0.134000
     77 H481        -2.2920     2.6410    -1.8210 hc         1 SVE       0.058200
     78 H482        -2.6520     4.2590    -2.4380 hc         1 SVE       0.058200
     79 H43         -7.4050     2.9940    -3.6250 ha         1 SVE       0.129000
     80 H44         -8.0800     2.5200    -1.3030 ha         1 SVE       0.134000
     81 H461        -5.7420     1.6480     1.3400 hc         1 SVE       0.058200
     82 H462        -7.4430     1.7570     0.8680 hc         1 SVE       0.058200
     83 H471        -6.1280     4.3790     1.0970 hc         1 SVE       0.034700
     84 H472        -7.6700     3.8300     1.7660 hc         1 SVE       0.034700
     85 H473        -6.1610     3.4770     2.6180 hc         1 SVE       0.034700
     86 H491        -1.5810     2.5830    -4.0870 hc         1 SVE       0.034700
     87 H492        -3.1570     1.7790    -4.0980 hc         1 SVE       0.034700
     88 H493        -3.0160     3.4550    -4.6440 hc         1 SVE       0.034700
@<TRIPOS>BOND
     1     1     2 1
     2     1     3 1
     3     2    13 1
     4     3     4 2
     5     3     7 1
     6     4     5 1
     7     4    12 1
     8     5     6 1
     9     5    11 1
    10     6     7 2
    11     7     8 1
    12     8     9 1
    13     8    10 2
    14     9    40 1
    15    12    13 ar
    16    12    17 ar
    17    13    14 ar
    18    14    15 ar
    19    15    16 ar
    20    16    17 ar
    21    16    18 1
    22    18    19 1
    23    19    20 ar
    24    19    24 ar
    25    20    21 ar
    26    20    25 1
    27    21    22 ar
    28    22    23 ar
    29    22    26 1
    30    23    24 ar
    31    25    36 1
    32    26    27 1
    33    26    28 2
    34    27    29 1
    35    29    30 1
    36    29    34 1
    37    30    31 1
    38    31    32 1
    39    32    33 1
    40    32    35 1
    41    33    34 1
    42    36    37 1
    43    36    38 1
    44    36    39 1
    45    40    41 ar
    46    40    45 ar
    47    41    42 ar
    48    41    48 1
    49    42    43 ar
    50    43    44 ar
    51    44    45 ar
    52    45    46 1
    53    46    47 1
    54    48    49 1
    55     1    50 1
    56     1    51 1
    57     2    52 1
    58     2    53 1
    59    11    54 1
    60    11    55 1
    61    11    56 1
    62     9    57 1
    63    14    58 1
    64    18    59 1
    65    24    60 1
    66    21    61 1
    67    23    62 1
    68    27    63 1
    69    29    64 1
    70    30    65 1
    71    30    66 1
    72    34    67 1
    73    34    68 1
    74    31    69 1
    75    31    70 1
    76    33    71 1
    77    33    72 1
    78    35    73 1
    79    35    74 1
    80    35    75 1
    81    42    76 1
    82    48    77 1
    83    48    78 1
    84    43    79 1
    85    44    80 1
    86    46    81 1
    87    46    82 1
    88    47    83 1
    89    47    84 1
    90    47    85 1
    91    49    86 1
    92    49    87 1
    93    49    88 1
@<TRIPOS>SUBSTRUCTURE
     1 SVE         1 TEMP              0 ****  ****    0 ROOT
