@<TRIPOS>MOLECULE
SVE
   88    93     1     0     0
SMALL
bcc


@<TRIPOS>ATOM
      1 C1           0.0000     0.0000     0.0000 c3         1 SVE       0.059900
      2 C2           1.5280     0.0000     0.0000 c3         1 SVE       0.051900
      3 C3          -0.5090     0.9960     1.0010 cc         1 SVE      -0.171600
      4 C4           0.1700     1.2880     2.1640 cd         1 SVE      -0.425800
      5 N5          -0.5710     2.1920     2.8360 na         1 SVE       0.682400
      6 N6          -1.6300     2.4790     2.1550 nd         1 SVE      -0.655800
      7 C7          -1.6580     1.7880     1.0250 cc         1 SVE       0.254800
      8 C8          -2.7060     1.8450    -0.0140 c          1 SVE       0.509600
      9 N9          -3.7660     2.6620     0.1430 ns         1 SVE      -0.021100
     10 O10         -2.6120     1.1550    -1.0110 o          1 SVE      -0.635100
     11 C11         -0.2260     2.7640     4.1410 c3         1 SVE      -0.018400
     12 C12          1.4680     0.6520     2.4460 ca         1 SVE       0.573800
     13 C13          2.1090     0.0000     1.3840 ca         1 SVE      -0.365900
     14 C14          3.3050    -0.6410     1.6470 ca         1 SVE       0.487200
     15 N15          3.8050    -0.5960     2.8730 nb         1 SVE      -0.689000
     16 C16          3.1860     0.0530     3.8490 ca         1 SVE       0.699900
     17 N17          2.0300     0.6720     3.6450 nb         1 SVE      -0.695000
     18 N18          3.7580     0.0860     5.1090 nu         1 SVE      -0.266300
     19 C19          5.0300    -0.4470     5.3110 ca         1 SVE       0.014600
     20 C20          5.4020    -0.9050     6.5770 ca         1 SVE       0.081100
     21 C21          6.6620    -1.4320     6.7790 ca         1 SVE      -0.109000
     22 C22          7.5630    -1.5080     5.7120 ca         1 SVE      -0.136600
     23 C23          7.1860    -1.0500     4.4480 ca         1 SVE      -0.081000
     24 C24          5.9250    -0.5290     4.2500 ca         1 SVE      -0.114000
     25 O25          4.5230    -0.8280     7.6130 os         1 SVE      -0.327900
     26 C26          8.9100    -2.0720     5.9220 c          1 SVE       0.597700
     27 N27          9.7780    -2.1440     4.8930 ns         1 SVE      -0.190900
     28 O28          9.2370    -2.4700     7.0230 o          1 SVE      -0.649100
     29 C29         11.1160    -2.7030     5.1020 c3         1 SVE       0.015700
     30 C30         12.0770    -2.1360     4.0540 c3         1 SVE      -0.040900
     31 C31         13.4580    -2.7700     4.2380 c3         1 SVE       0.161800
     32 N32         13.3520    -4.2280     4.0940 n3         1 SVE      -0.548600
     33 C33         12.4720    -4.7990     5.1210 c3         1 SVE       0.161800
     34 C34         11.0610    -4.2270     4.9620 c3         1 SVE      -0.040900
     35 C35         14.6790    -4.8580     4.1270 c3         1 SVE       0.189100
     36 C36          4.9700    -1.3140     8.8800 c3         1 SVE       0.762700
     37 F37          6.0950    -0.5890     9.2870 f          1 SVE      -0.194300
     38 F38          3.9490    -1.1630     9.8240 f          1 SVE      -0.194300
     39 F39          5.3040    -2.6690     8.7680 f          1 SVE      -0.194300
     40 C40         -4.7360     2.7490    -0.8600 ca         1 SVE      -0.097400
     41 C41         -4.3590     3.0150    -2.1710 ca         1 SVE      -0.068800
     42 C42         -5.3180     3.1010    -3.1600 ca         1 SVE      -0.103500
     43 C43         -6.6540     2.9240    -2.8470 ca         1 SVE      -0.094000
     44 C44         -7.0330     2.6600    -1.5440 ca         1 SVE      -0.103500
     45 C45         -6.0780     2.5670    -0.5510 ca         1 SVE      -0.068800
     46 C46         -6.4900     2.2730     0.8680 c3         1 SVE      -0.007600
     47 C47         -6.6220     3.5860     1.6440 c3         1 SVE       0.007400
     48 C48         -2.9040     3.2080    -2.5120 c3         1 SVE      -0.007600
     49 C49         -2.6460     2.7210    -3.9400 c3         1 SVE       0.007400
     50 H10         -0.3480     0.2880    -0.9850 hc         1 SVE       0.041700
     51 H11         -0.3480    -0.9860     0.2830 hc         1 SVE       0.041700
     52 H20          1.8540     0.9090    -0.4900 hc         1 SVE       0.025200
     53 H21          1.8540    -0.9090    -0.4900 hc         1 SVE       0.025200
     54 H111         0.7480     3.2350     4.0820 h1         1 SVE       0.036367
     55 H112        -0.9680     3.5020     4.4190 h1         1 SVE       0.036367
     56 H113        -0.2020     1.9770     4.8850 h1         1 SVE       0.036367
     57 H9          -3.8350     3.2400     0.9570 hn         1 SVE       0.184500
     58 H14          3.8250    -1.1770     0.8610 h4         1 SVE      -0.010900
     59 H18          3.2720     0.5210     5.8680 hn         1 SVE       0.300800
     60 H24          5.6350    -0.1740     3.2690 ha         1 SVE       0.157000
     61 H22          6.9510    -1.7870     7.7600 ha         1 SVE       0.154000
     62 H23          7.8820    -1.1100     3.6200 ha         1 SVE       0.106000
     63 H27          9.5180    -1.7930     3.9930 hn         1 SVE       0.179500
     64 H29         11.4710    -2.4450     6.0920 h1         1 SVE       0.057700
     65 H301        11.7050    -2.3640     3.0620 hc         1 SVE       0.026450
     66 H302        12.1540    -1.0620     4.1790 hc         1 SVE       0.026450
     67 H341        10.6750    -4.4860     3.9830 hc         1 SVE       0.026450
     68 H342        10.4170    -4.6370     5.7300 hc         1 SVE       0.026450
     69 H311        14.1340    -2.3830     3.4860 h1         1 SVE       0.010950
     70 H312        13.8330    -2.5330     5.2260 h1         1 SVE       0.010950
     71 H331        12.4380    -5.8760     5.0060 h1         1 SVE       0.010950
     72 H332        12.8540    -4.5470     6.1030 h1         1 SVE       0.010950
     73 H351        15.2970    -4.4390     3.3430 h1         1 SVE       0.000367
     74 H352        14.5760    -5.9250     3.9750 h1         1 SVE       0.000367
     75 H353        15.1420    -4.6730     5.0890 h1         1 SVE       0.000367
     76 H42         -5.0250     3.3080    -4.1820 ha         1 SVE       0.110500
     77 H481        -2.2920     2.6410    -1.8210 hc         1 SVE       0.033450
     78 H482        -2.6520     4.2590    -2.4380 hc         1 SVE       0.033450
     79 H43         -7.4050     2.9940    -3.6250 ha         1 SVE       0.101000
     80 H44         -8.0800     2.5200    -1.3030 ha         1 SVE       0.110500
     81 H461        -5.7420     1.6480     1.3400 hc         1 SVE       0.033450
     82 H462        -7.4430     1.7570     0.8680 hc         1 SVE       0.033450
     83 H471        -6.1280     4.3790     1.0970 hc         1 SVE       0.002700
     84 H472        -7.6700     3.8300     1.7660 hc         1 SVE       0.002700
     85 H473        -6.1610     3.4770     2.6180 hc         1 SVE       0.002700
     86 H491        -1.5810     2.5830    -4.0870 hc         1 SVE       0.002700
     87 H492        -3.1570     1.7790    -4.0980 hc         1 SVE       0.002700
     88 H493        -3.0160     3.4550    -4.6440 hc         1 SVE       0.002700
@<TRIPOS>BOND
     1     1     2 1   
     2     1     3 1   
     3     1    50 1   
     4     1    51 1   
     5     2    13 1   
     6     2    52 1   
     7     2    53 1   
     8     3     4 2   
     9     3     7 1   
    10     4     5 1   
    11     4    12 1   
    12     5     6 1   
    13     5    11 1   
    14     6     7 2   
    15     7     8 1   
    16     8     9 1   
    17     8    10 2   
    18     9    40 1   
    19     9    57 1   
    20    11    54 1   
    21    11    55 1   
    22    11    56 1   
    23    12    13 ar  
    24    12    17 ar  
    25    13    14 ar  
    26    14    15 ar  
    27    14    58 1   
    28    15    16 ar  
    29    16    17 ar  
    30    16    18 1   
    31    18    19 1   
    32    18    59 1   
    33    19    20 ar  
    34    19    24 ar  
    35    20    21 ar  
    36    20    25 1   
    37    21    22 ar  
    38    21    61 1   
    39    22    23 ar  
    40    22    26 1   
    41    23    24 ar  
    42    23    62 1   
    43    24    60 1   
    44    25    36 1   
    45    26    27 1   
    46    26    28 2   
    47    27    29 1   
    48    27    63 1   
    49    29    30 1   
    50    29    34 1   
    51    29    64 1   
    52    30    31 1   
    53    30    65 1   
    54    30    66 1   
    55    31    32 1   
    56    31    69 1   
    57    31    70 1   
    58    32    33 1   
    59    32    35 1   
    60    33    34 1   
    61    33    71 1   
    62    33    72 1   
    63    34    67 1   
    64    34    68 1   
    65    35    73 1   
    66    35    74 1   
    67    35    75 1   
    68    36    37 1   
    69    36    38 1   
    70    36    39 1   
    71    40    41 ar  
    72    40    45 ar  
    73    41    42 ar  
    74    41    48 1   
    75    42    43 ar  
    76    42    76 1   
    77    43    44 ar  
    78    43    79 1   
    79    44    45 ar  
    80    44    80 1   
    81    45    46 1   
    82    46    47 1   
    83    46    81 1   
    84    46    82 1   
    85    47    83 1   
    86    47    84 1   
    87    47    85 1   
    88    48    49 1   
    89    48    77 1   
    90    48    78 1   
    91    49    86 1   
    92    49    87 1   
    93    49    88 1   
@<TRIPOS>SUBSTRUCTURE
     1 SVE         1 TEMP              0 ****  ****    0 ROOT
