@<TRIPOS>MOLECULE
SVF
   35    36     1     0     0
SMALL
bcc


@<TRIPOS>ATOM
      1 C01          0.0000     0.0000     0.0000 ca         1 SVF      -0.074500
      2 C02          1.3820     0.0000     0.0000 ca         1 SVF      -0.129000
      3 C03         -0.6930     0.0000     1.1960 ca         1 SVF      -0.102300
      4 C04          2.0720     0.0000     1.2000 ca         1 SVF       0.101900
      5 C05         -0.0040     0.0000     2.3950 ca         1 SVF      -0.074500
      6 C06          1.3780    -0.0000     2.3980 ca         1 SVF      -0.129000
      7 C08         -2.2000    -0.0000     1.1940 c3         1 SVF       0.035900
      8 C09         -2.7100    -1.4420     1.1930 c3         1 SVF      -0.049700
      9 C10         -2.3020    -2.1270    -0.1130 c3         1 SVF      -0.048400
     10 C11         -4.2350    -1.4440     1.3170 c3         1 SVF      -0.048400
     11 C12         -2.7830    -3.5810    -0.0960 c3         1 SVF       0.049500
     12 C13         -4.7390    -2.8900     1.3510 c3         1 SVF       0.049500
     13 N14         -4.2290    -3.5970     0.1680 n          1 SVF      -0.162800
     14 C15         -5.0710    -4.2470    -0.6610 c          1 SVF       0.589100
     15 O16         -4.6380    -4.8250    -1.6340 o          1 SVF      -0.648100
     16 C17         -6.5510    -4.2530    -0.3770 c3         1 SVF      -0.073100
     17 F07          3.4240    -0.0010     1.2020 f          1 SVF      -0.128900
     18 H1          -0.5410    -0.0000    -0.9390 ha         1 SVF       0.111500
     19 H2           1.9240     0.0000    -0.9380 ha         1 SVF       0.119500
     20 H3          -0.5480     0.0000     3.3320 ha         1 SVF       0.111500
     21 H4           1.9180     0.0000     3.3380 ha         1 SVF       0.119500
     22 H5          -2.5600     0.5110     0.3100 hc         1 SVF       0.022200
     23 H6          -2.5620     0.5100     2.0790 hc         1 SVF       0.022200
     24 H7          -2.2820    -1.9820     2.0300 hc         1 SVF       0.034700
     25 H8          -1.2230    -2.1050    -0.2090 hc         1 SVF       0.026950
     26 H9          -2.7550    -1.6070    -0.9490 hc         1 SVF       0.026950
     27 H10         -4.6660    -0.9320     0.4650 hc         1 SVF       0.026950
     28 H11         -4.5220    -0.9410     2.2320 hc         1 SVF       0.026950
     29 H12         -2.5850    -4.0400    -1.0570 h1         1 SVF       0.030450
     30 H13         -2.2660    -4.1250     0.6860 h1         1 SVF       0.030450
     31 H14         -4.3790    -3.3790     2.2480 h1         1 SVF       0.030450
     32 H15         -5.8230    -2.8960     1.3370 h1         1 SVF       0.030450
     33 H16         -6.7250    -4.6180     0.6280 hc         1 SVF       0.024367
     34 H17         -7.0520    -4.8990    -1.0880 hc         1 SVF       0.024367
     35 H18         -6.9410    -3.2460    -0.4680 hc         1 SVF       0.024367
@<TRIPOS>BOND
     1     1     2 ar  
     2     1     3 ar  
     3     1    18 1   
     4     2     4 ar  
     5     2    19 1   
     6     3     5 ar  
     7     3     7 1   
     8     4     6 ar  
     9     4    17 1   
    10     5     6 ar  
    11     5    20 1   
    12     6    21 1   
    13     7     8 1   
    14     7    22 1   
    15     7    23 1   
    16     8     9 1   
    17     8    10 1   
    18     8    24 1   
    19     9    11 1   
    20     9    25 1   
    21     9    26 1   
    22    10    12 1   
    23    10    27 1   
    24    10    28 1   
    25    11    13 1   
    26    11    29 1   
    27    11    30 1   
    28    12    13 1   
    29    12    31 1   
    30    12    32 1   
    31    13    14 1   
    32    14    15 2   
    33    14    16 1   
    34    16    33 1   
    35    16    34 1   
    36    16    35 1   
@<TRIPOS>SUBSTRUCTURE
     1 SVF         1 TEMP              0 ****  ****    0 ROOT
