@<TRIPOS>MOLECULE
molecule
   15    16     1     0     0
SMALL
bcc


@<TRIPOS>ATOM
      1 CAD          0.0000     0.0000     0.0000 cc         1 SVN      -0.108400
      2 SAG          1.7530     0.0000     0.0000 ss         1 SVN      -0.139900
      3 CAI          1.8220     0.0000     1.7580 ca         1 SVN       0.360300
      4 NAE          2.8690    -0.0050     2.5830 nb         1 SVN      -0.625000
      5 CAB          2.6870    -0.0090     3.8880 ca         1 SVN       0.305900
      6 CAC          1.4040    -0.0110     4.4130 ca         1 SVN       0.291900
      7 NAF          0.3580    -0.0070     3.6160 nb         1 SVN      -0.613000
      8 CAJ          0.5210    -0.0010     2.2820 ca         1 SVN       0.310800
      9 CAH         -0.4850     0.0050     1.2300 cd         1 SVN       0.063200
     10 NAA         -1.8660     0.0060     1.5020 nv         1 SVN      -0.964600
     11 H1          -0.6100    -0.0040    -0.8950 h4         1 SVN       0.184000
     12 H2           3.5430    -0.0130     4.5530 h4         1 SVN       0.035100
     13 H3           1.2620    -0.0150     5.4860 h4         1 SVN       0.033100
     14 H4          -2.3580     0.8730     1.5890 hn         1 SVN       0.433800
     15 H5          -2.3590    -0.8610     1.5870 hn         1 SVN       0.433800
@<TRIPOS>BOND
     1     5     6 ar
     2     5     4 ar
     3     6     7 ar
     4     4     3 ar
     5     7     8 ar
     6     3     8 ar
     7     3     2 1
     8     8     9 1
     9     9    10 1
    10     9     1 2
    11     2     1 1
    12     1    11 1
    13     5    12 1
    14     6    13 1
    15    10    14 1
    16    10    15 1
@<TRIPOS>SUBSTRUCTURE
     1 SVN         1 TEMP              0 ****  ****    0 ROOT
