@<TRIPOS>MOLECULE
SVN
   15    16     1     0     0
SMALL
bcc


@<TRIPOS>ATOM
      1 CAD          0.0000     0.0000     0.0000 cc         1 SVN      -0.019400
      2 SAG          1.7530     0.0000     0.0000 ss         1 SVN      -0.281900
      3 CAI          1.8220     0.0000     1.7580 ca         1 SVN       0.368300
      4 NAE          2.8690    -0.0050     2.5830 nb         1 SVN      -0.498000
      5 CAB          2.6870    -0.0090     3.8880 ca         1 SVN       0.288900
      6 CAC          1.4040    -0.0110     4.4130 ca         1 SVN       0.279900
      7 NAF          0.3580    -0.0070     3.6160 nb         1 SVN      -0.503000
      8 CAJ          0.5210    -0.0010     2.2820 ca         1 SVN       0.273800
      9 CAH         -0.4850     0.0050     1.2300 cd         1 SVN      -0.072800
     10 NAA         -1.8660     0.0060     1.5020 nv         1 SVN      -0.528600
     11 H1          -0.6100    -0.0040    -0.8950 h4         1 SVN       0.157000
     12 H2           3.5430    -0.0130     4.5530 h4         1 SVN      -0.007900
     13 H3           1.2620    -0.0150     5.4860 h4         1 SVN      -0.008900
     14 H4          -2.3580     0.8730     1.5890 hn         1 SVN       0.275800
     15 H5          -2.3590    -0.8610     1.5870 hn         1 SVN       0.275800
@<TRIPOS>BOND
     1     1     2 1   
     2     1     9 2   
     3     1    11 1   
     4     2     3 1   
     5     3     4 ar  
     6     3     8 ar  
     7     4     5 ar  
     8     5     6 ar  
     9     5    12 1   
    10     6     7 ar  
    11     6    13 1   
    12     7     8 ar  
    13     8     9 1   
    14     9    10 1   
    15    10    14 1   
    16    10    15 1   
@<TRIPOS>SUBSTRUCTURE
     1 SVN         1 TEMP              0 ****  ****    0 ROOT
