@<TRIPOS>MOLECULE
SVQ
   44    46     1     0     0
SMALL
bcc


@<TRIPOS>ATOM
      1 CL2        -0.1900   -0.2230    0.4090 cl        1 SVQ     -0.114400
      2 C25         1.5140   -0.3020    0.3430 ca        1 SVQ      0.027400
      3 C24         2.1780   -0.5400    1.5560 ca        1 SVQ     -0.147000
      4 C23         3.5620   -0.6680    1.5790 ca        1 SVQ     -0.139000
      5 C22         4.2870   -0.5740    0.3900 ca        1 SVQ     -0.141000
      6 C21         3.6280   -0.3270   -0.8100 ca        1 SVQ     -0.103000
      7 C20         2.2320   -0.1620   -0.8500 ca        1 SVQ     -0.064300
      8 C14         1.6380    0.1100   -2.2230 c3        1 SVQ      0.147000
      9 C13         1.3080   -1.2450   -2.8790 c3        1 SVQ     -0.195700
     10 C17         2.5530   -1.8210   -3.6170 c         1 SVQ      0.920600
     11 O19         3.5690   -1.0840   -3.7740 o         1 SVQ     -0.833800
     12 O18         2.4650   -3.0110   -4.0220 o         1 SVQ     -0.833800
     13 C12         0.1680   -1.1480   -3.8690 c3        1 SVQ     -0.061400
     14 C11        -1.0370   -0.5040   -3.2260 c3        1 SVQ     -0.145400
     15 C10        -0.6960    0.8750   -2.7060 c         1 SVQ      0.705500
     16 O15        -1.5470    1.7960   -2.7280 o         1 SVQ     -0.700500
     17 N9          0.5730    1.1030   -2.2030 n         1 SVQ     -0.456800
     18 C8          0.9520    2.4420   -1.8200 c3        1 SVQ      0.102000
     19 C7          1.4960    3.2990   -2.9750 c3        1 SVQ     -0.074100
     20 C2          1.7960    4.6770   -2.5050 ca        1 SVQ     -0.056300
     21 C3          3.1190    5.1120   -2.3670 ca        1 SVQ     -0.121000
     22 C4          3.3990    6.4090   -1.9400 ca        1 SVQ     -0.128000
     23 C5          2.3450    7.2780   -1.6460 ca        1 SVQ      0.006400
     24 CL1         2.6800    8.8670   -1.1240 cl        1 SVQ     -0.123400
     25 C6          1.0180    6.8580   -1.7770 ca        1 SVQ     -0.128000
     26 C1          0.7500    5.5600   -2.2050 ca        1 SVQ     -0.121000
     27 H24         1.6010   -0.6350    2.4870 ha        1 SVQ      0.129000
     28 H23         4.0800   -0.8550    2.5300 ha        1 SVQ      0.118000
     29 H22         5.3780   -0.7050    0.3970 ha        1 SVQ      0.126000
     30 H21         4.1850   -0.3060   -1.7700 ha        1 SVQ      0.197000
     31 H14         2.4740    0.5690   -2.8550 h1        1 SVQ      0.099700
     32 H13         1.0270   -1.9800   -2.0780 hc        1 SVQ      0.054700
     33 H121        0.4890   -0.5520   -4.7630 hc        1 SVQ      0.056700
     34 H122       -0.0840   -2.1810   -4.2280 hc        1 SVQ      0.056700
     35 H111       -1.8800   -0.4030   -3.9570 hc        1 SVQ      0.060700
     36 H112       -1.3960   -1.1210   -2.3600 hc        1 SVQ      0.060700
     37 H81C        1.7400    2.3720   -1.0180 h1        1 SVQ      0.057700
     38 H82C        0.0480    2.9610   -1.3900 h1        1 SVQ      0.057700
     39 H71C        0.7270    3.3440   -3.7930 hc        1 SVQ      0.066200
     40 H72C        2.4170    2.8200   -3.4010 hc        1 SVQ      0.066200
     41 H3          3.9480    4.4250   -2.5980 ha        1 SVQ      0.147500
     42 H1         -0.2920    5.2190   -2.3100 ha        1 SVQ      0.147500
     43 H4          4.4420    6.7420   -1.8350 ha        1 SVQ      0.139000
     44 H6          0.1910    7.5440   -1.5430 ha        1 SVQ      0.139000
@<TRIPOS>BOND
     1    1    2 1
     2    2    3 ar
     3    2    7 ar
     4    3    4 ar
     5    3   27 1
     6    4    5 ar
     7    4   28 1
     8    5    6 ar
     9    5   29 1
    10    6    7 ar
    11    6   30 1
    12    7    8 1
    13    8    9 1
    14    8   17 1
    15    8   31 1
    16    9   10 1
    17    9   13 1
    18    9   32 1
    19   10   11 1
    20   10   12 1
    21   13   14 1
    22   13   33 1
    23   13   34 1
    24   14   15 1
    25   14   35 1
    26   14   36 1
    27   15   16 2
    28   15   17 1
    29   17   18 1
    30   18   19 1
    31   18   37 1
    32   18   38 1
    33   19   20 1
    34   19   39 1
    35   19   40 1
    36   20   21 ar
    37   20   26 ar
    38   21   22 ar
    39   21   41 1
    40   22   23 ar
    41   22   43 1
    42   23   24 1
    43   23   25 ar
    44   25   26 ar
    45   25   44 1
    46   26   42 1
@<TRIPOS>SUBSTRUCTURE
     1 SVQ         1 TEMP              0 ****  ****    0 ROOT
