@<TRIPOS>MOLECULE
SVS
   53    56     1     0     0
SMALL
bcc


@<TRIPOS>ATOM
      1 S            0.0000     0.0000     0.0000 s6         1 SVS       0.953900
      2 N1          -2.0660   -10.5700    -1.3740 nb         1 SVS      -0.745000
      3 C2          -2.0980    -9.7990    -2.4450 ca         1 SVS       0.692900
      4 N3          -2.0770    -8.4850    -2.3720 nb         1 SVS      -0.677000
      5 C4          -2.0240    -7.8740    -1.1920 ca         1 SVS       0.275800
      6 C5          -1.9890    -8.6490    -0.0220 ca         1 SVS      -0.245200
      7 C6          -2.0120   -10.0490    -0.1520 ca         1 SVS       0.591200
      8 N6          -1.9800   -10.8650     0.9650 nv         1 SVS      -0.479500
      9 N7          -1.9360    -7.7920     1.0250 nc         1 SVS      -0.495100
     10 C8          -1.9370    -6.5680     0.5820 cd         1 SVS       0.247700
     11 N9          -1.9910    -6.5650    -0.7800 na         1 SVS       0.203000
     12 C1'         -2.0070    -5.3830    -1.6450 c3         1 SVS       0.154800
     13 C14         -0.0860     0.8020     4.8010 ca         1 SVS       0.147100
     14 O14          1.1390     0.2730     4.5360 oh         1 SVS      -0.487100
     15 C15         -0.5730     0.8080     6.0990 ca         1 SVS      -0.177000
     16 C16         -1.8150     1.3510     6.3680 ca         1 SVS      -0.065000
     17 C17         -2.5720     1.8880     5.3420 ca         1 SVS      -0.129000
     18 C18         -2.0880     1.8820     4.0470 ca         1 SVS      -0.066000
     19 C19         -0.8470     1.3400     3.7740 ca         1 SVS      -0.133300
     20 O1P          1.4210     0.0000     0.0000 o          1 SVS      -0.581800
     21 C2'         -3.4620    -4.9570    -1.9440 c3         1 SVS       0.122100
     22 O2'         -3.8770    -5.4510    -3.2180 oh         1 SVS      -0.538800
     23 C21         -0.3180     1.3400     2.3630 c3         1 SVS       0.075900
     24 C22         -0.6370     0.0000     1.6980 c3         1 SVS      -0.011600
     25 O2P         -0.7310     0.9130    -0.8070 o          1 SVS      -0.581800
     26 C3'         -3.4070    -3.4130    -1.9510 c3         1 SVS       0.134100
     27 O3'         -3.7840    -2.9040    -3.2320 oh         1 SVS      -0.546800
     28 C4'         -1.9250    -3.0890    -1.6560 c3         1 SVS       0.155100
     29 O4'         -1.4250    -4.2520    -0.9620 os         1 SVS      -0.403600
     30 C5'         -1.8180    -1.8500    -0.7640 c3         1 SVS       0.227800
     31 N5'         -0.4090    -1.4910    -0.5950 n7         1 SVS      -0.596100
     32 HN6         -1.9520   -10.4610     1.8800 hn         1 SVS       0.276300
     33 HN6A        -1.9840   -11.8600     0.8570 hn         1 SVS       0.276300
     34 H8          -1.9010    -5.6820     1.2040 h5         1 SVS       0.037800
     35 H1'         -1.4760    -5.5780    -2.5680 h2         1 SVS       0.072700
     36 HO14         1.7570     0.5720     5.1820 ho         1 SVS       0.407000
     37 H15          0.0200     0.3880     6.9030 ha         1 SVS       0.112000
     38 H16         -2.1960     1.3560     7.3820 ha         1 SVS       0.103000
     39 H17         -3.5450     2.3130     5.5540 ha         1 SVS       0.106000
     40 H18         -2.6830     2.3030     3.2450 ha         1 SVS       0.108000
     41 H2'         -4.1250    -5.3060    -1.1620 h1         1 SVS       0.018700
     42 HO2'        -4.7830    -5.7070    -3.1760 ho         1 SVS       0.393000
     43 H21         -0.7840     2.1420     1.8030 hc         1 SVS       0.033700
     44 H22         -0.1700    -0.8010     2.2590 h1         1 SVS       0.071200
     45 H3'         -4.0440    -3.0090    -1.1730 h1         1 SVS       0.013700
     46 HO3'        -4.5890    -2.4200    -3.1540 ho         1 SVS       0.390000
     47 H4'         -1.3820    -2.9420    -2.5810 h1         1 SVS       0.054700
     48 H5'         -2.3480    -1.0250    -1.2270 h1         1 SVS       0.020700
     49 H5'A        -2.2560    -2.0620     0.2030 h1         1 SVS       0.020700
     50 HN5'         0.3080    -2.1370    -0.8600 hn         1 SVS       0.363800
     51 H211         0.7550     1.4880     2.3800 hc         1 SVS       0.033700
     52 H221        -1.7100    -0.1480     1.6810 h1         1 SVS       0.071200
     53 H2          -2.1420   -10.2660    -3.4220 h5         1 SVS      -0.003900
@<TRIPOS>BOND
     1     1    20 2   
     2     1    24 1   
     3     1    25 2   
     4     1    31 1   
     5     2     3 ar  
     6     2     7 ar  
     7     3     4 ar  
     8     3    53 1   
     9     4     5 ar  
    10     5     6 ar  
    11     5    11 1   
    12     6     7 ar  
    13     6     9 1   
    14     7     8 1   
    15     8    32 1   
    16     8    33 1   
    17     9    10 2   
    18    10    11 1   
    19    10    34 1   
    20    11    12 1   
    21    12    21 1   
    22    12    29 1   
    23    12    35 1   
    24    13    14 1   
    25    13    15 ar  
    26    13    19 ar  
    27    14    36 1   
    28    15    16 ar  
    29    15    37 1   
    30    16    17 ar  
    31    16    38 1   
    32    17    18 ar  
    33    17    39 1   
    34    18    19 ar  
    35    18    40 1   
    36    19    23 1   
    37    21    22 1   
    38    21    26 1   
    39    21    41 1   
    40    22    42 1   
    41    23    24 1   
    42    23    43 1   
    43    23    51 1   
    44    24    44 1   
    45    24    52 1   
    46    26    27 1   
    47    26    28 1   
    48    26    45 1   
    49    27    46 1   
    50    28    29 1   
    51    28    30 1   
    52    28    47 1   
    53    30    31 1   
    54    30    48 1   
    55    30    49 1   
    56    31    50 1   
@<TRIPOS>SUBSTRUCTURE
     1 SVS         1 TEMP              0 ****  ****    0 ROOT
