@<TRIPOS>MOLECULE
molecule
   21    22     1     0     0
SMALL
bcc


@<TRIPOS>ATOM
      1 C1           0.0000     0.0000     0.0000 c3         1 SW1       0.090500
      2 N1           1.4690     0.0000     0.0000 nz         1 SW1      -0.809600
      3 S1          -1.3700     0.0000     3.7500 ss         1 SW1      -0.087300
      4 C2          -0.5030    -0.2690     1.3950 cc         1 SW1       0.281600
      5 N2          -0.6440    -1.4890     1.8620 nc         1 SW1      -0.709000
      6 S2          -1.0300    -4.4780     3.1220 ss         1 SW1      -0.098800
      7 C3          -0.8330     0.7190     2.2330 cd         1 SW1      -0.177400
      8 C4          -1.0860    -1.6070     3.0840 cd         1 SW1       0.602900
      9 C5          -1.3140    -2.8770     3.7910 cd         1 SW1      -0.134600
     10 C6          -1.7730    -2.9940     5.0570 cc         1 SW1      -0.102000
     11 C7          -1.9040    -4.2900     5.5030 cc         1 SW1      -0.147000
     12 C8          -1.5580    -5.2330     4.6190 cd         1 SW1      -0.026100
     13 H1          -0.3610    -0.7720    -0.6690 hx         1 SW1       0.119200
     14 H1A         -0.3610     0.9650    -0.3340 hx         1 SW1       0.119200
     15 HN1          1.8020    -0.8920     0.3080 hn         1 SW1       0.457800
     16 HN1A         1.8020     0.1790    -0.9260 hn         1 SW1       0.457800
     17 H3          -0.7800     1.7790     2.0160 h4         1 SW1       0.189000
     18 H6          -2.0180    -2.1360     5.6720 ha         1 SW1       0.156000
     19 H7          -2.2620    -4.5300     6.4970 ha         1 SW1       0.170000
     20 H8          -1.5040    -6.3120     4.5430 h4         1 SW1       0.190000
     21 H13          1.8020     0.7050     0.6270 hn         1 SW1       0.457800
@<TRIPOS>BOND
     1     1     2 1
     2     1     4 1
     3     3     7 1
     4     3     8 1
     5     4     5 1
     6     4     7 2
     7     5     8 2
     8     6     9 1
     9     6    12 1
    10     8     9 1
    11     9    10 2
    12    10    11 1
    13    11    12 2
    14     1    13 1
    15     1    14 1
    16     2    15 1
    17     2    16 1
    18     7    17 1
    19    10    18 1
    20    11    19 1
    21    12    20 1
    22    21     2 1
@<TRIPOS>SUBSTRUCTURE
     1 SW1         1 TEMP              0 ****  ****    0 ROOT
