@<TRIPOS>MOLECULE
SW1
   21    22     1     0     0
SMALL
bcc


@<TRIPOS>ATOM
      1 C1           0.0000     0.0000     0.0000 c3         1 SW1      -0.047500
      2 N1           1.4690     0.0000     0.0000 nz         1 SW1       0.081400
      3 S1          -1.3700     0.0000     3.7500 ss         1 SW1      -0.211300
      4 C2          -0.5030    -0.2690     1.3950 cc         1 SW1       0.232600
      5 N2          -0.6440    -1.4890     1.8620 nc         1 SW1      -0.590000
      6 S2          -1.0300    -4.4780     3.1220 ss         1 SW1      -0.241800
      7 C3          -0.8330     0.7190     2.2330 cd         1 SW1      -0.086400
      8 C4          -1.0860    -1.6070     3.0840 cd         1 SW1       0.625900
      9 C5          -1.3140    -2.8770     3.7910 cd         1 SW1      -0.098600
     10 C6          -1.7730    -2.9940     5.0570 cc         1 SW1      -0.059000
     11 C7          -1.9040    -4.2900     5.5030 cc         1 SW1      -0.119000
     12 C8          -1.5580    -5.2330     4.6190 cd         1 SW1       0.071900
     13 H1          -0.3610    -0.7720    -0.6690 hx         1 SW1       0.086700
     14 H1A         -0.3610     0.9650    -0.3340 hx         1 SW1       0.086700
     15 HN1          1.8020    -0.8920     0.3080 hn         1 SW1       0.223800
     16 HN1A         1.8020     0.1790    -0.9260 hn         1 SW1       0.223800
     17 H3          -0.7800     1.7790     2.0160 h4         1 SW1       0.166000
     18 H6          -2.0180    -2.1360     5.6720 ha         1 SW1       0.130000
     19 H7          -2.2620    -4.5300     6.4970 ha         1 SW1       0.138000
     20 H8          -1.5040    -6.3120     4.5430 h4         1 SW1       0.163000
     21 H13          1.8020     0.7050     0.6270 hn         1 SW1       0.223800
@<TRIPOS>BOND
     1     1     2 1   
     2     1     4 1   
     3     1    13 1   
     4     1    14 1   
     5     2    15 1   
     6     2    16 1   
     7     2    21 1   
     8     3     7 1   
     9     3     8 1   
    10     4     5 1   
    11     4     7 2   
    12     5     8 2   
    13     6     9 1   
    14     6    12 1   
    15     7    17 1   
    16     8     9 1   
    17     9    10 2   
    18    10    11 1   
    19    10    18 1   
    20    11    12 2   
    21    11    19 1   
    22    12    20 1   
@<TRIPOS>SUBSTRUCTURE
     1 SW1         1 TEMP              0 ****  ****    0 ROOT
