@<TRIPOS>MOLECULE
molecule
   26    27     1     0     0
SMALL
bcc


@<TRIPOS>ATOM
      1 C1           0.0000     0.0000     0.0000 c3         1 SW2       0.160100
      2 N1           1.4690     0.0000     0.0000 nz         1 SW2      -0.810600
      3 C2          -0.5020     0.0000     1.4220 ca         1 SW2      -0.166300
      4 N2          -1.4280    -2.4090     4.0440 na         1 SW2       0.011800
      5 C3          -0.7320     1.1980     2.0720 ca         1 SW2      -0.130000
      6 C4          -1.1920     1.2020     3.3760 ca         1 SW2      -0.081000
      7 C5          -1.4250     0.0090     4.0320 ca         1 SW2      -0.113000
      8 C6          -1.1940    -1.1960     3.3810 ca         1 SW2       0.058800
      9 C7          -1.8800    -2.5410     5.3250 cc         1 SW2      -0.164800
     10 C8          -1.9780    -3.8570     5.6040 cd         1 SW2      -0.166000
     11 C9          -1.5730    -4.5640     4.4540 cd         1 SW2      -0.166000
     12 C10         -1.2470    -3.6540     3.5140 cc         1 SW2      -0.164800
     13 C11         -0.7360    -1.1970     2.0700 ca         1 SW2      -0.148000
     14 H1          -0.3610    -0.8840    -0.5110 hx         1 SW2       0.113700
     15 H1A         -0.3610     0.8850    -0.5110 hx         1 SW2       0.113700
     16 HN1          1.8030     0.8950     0.2980 hn         1 SW2       0.455467
     17 HN1A         1.8030    -0.7060     0.6260 hn         1 SW2       0.455467
     18 H3          -0.5500     2.1350     1.5600 ha         1 SW2       0.138000
     19 H4          -1.3720     2.1420     3.8840 ha         1 SW2       0.164000
     20 H5          -1.7850     0.0130     5.0530 ha         1 SW2       0.167000
     21 H7          -2.1180    -1.7290     6.0020 h4         1 SW2       0.168000
     22 H8          -2.3070    -4.2910     6.5410 ha         1 SW2       0.167500
     23 H9          -1.5350    -5.6410     4.3440 ha         1 SW2       0.167500
     24 H10         -0.8950    -3.8730     2.5130 h4         1 SW2       0.168000
     25 H11         -0.6210    -2.1330     1.5380 ha         1 SW2       0.146000
     26 H13          1.8030    -0.1410    -0.9330 hn         1 SW2       0.455467
@<TRIPOS>BOND
     1     1     2 1
     2     1     3 1
     3     3     5 ar
     4     3    13 ar
     5     4     8 1
     6     4     9 1
     7     4    12 1
     8     5     6 ar
     9     6     7 ar
    10     7     8 ar
    11     8    13 ar
    12     9    10 2
    13    10    11 1
    14    11    12 2
    15     1    14 1
    16     1    15 1
    17     2    16 1
    18     2    17 1
    19     5    18 1
    20     6    19 1
    21     7    20 1
    22     9    21 1
    23    10    22 1
    24    11    23 1
    25    12    24 1
    26    13    25 1
    27    26     2 1
@<TRIPOS>SUBSTRUCTURE
     1 SW2         1 TEMP              0 ****  ****    0 ROOT
