@<TRIPOS>MOLECULE
SW2
   26    27     1     0     0
SMALL
bcc


@<TRIPOS>ATOM
      1 C1           0.0000     0.0000     0.0000 c3         1 SW2       0.037100
      2 N1           1.4690     0.0000     0.0000 nz         1 SW2       0.075400
      3 C2          -0.5020     0.0000     1.4220 ca         1 SW2      -0.180300
      4 N2          -1.4280    -2.4090     4.0440 na         1 SW2       0.539800
      5 C3          -0.7320     1.1980     2.0720 ca         1 SW2      -0.095000
      6 C4          -1.1920     1.2020     3.3760 ca         1 SW2      -0.045000
      7 C5          -1.4250     0.0090     4.0320 ca         1 SW2      -0.077000
      8 C6          -1.1940    -1.1960     3.3810 ca         1 SW2      -0.117200
      9 C7          -1.8800    -2.5410     5.3250 cc         1 SW2      -0.339800
     10 C8          -1.9780    -3.8570     5.6040 cd         1 SW2      -0.125500
     11 C9          -1.5730    -4.5640     4.4540 cd         1 SW2      -0.125500
     12 C10         -1.2470    -3.6540     3.5140 cc         1 SW2      -0.339800
     13 C11         -0.7360    -1.1970     2.0700 ca         1 SW2      -0.114000
     14 H1          -0.3610    -0.8840    -0.5110 hx         1 SW2       0.083200
     15 H1A         -0.3610     0.8850    -0.5110 hx         1 SW2       0.083200
     16 HN1          1.8030     0.8950     0.2980 hn         1 SW2       0.223467
     17 HN1A         1.8030    -0.7060     0.6260 hn         1 SW2       0.223467
     18 H3          -0.5500     2.1350     1.5600 ha         1 SW2       0.111000
     19 H4          -1.3720     2.1420     3.8840 ha         1 SW2       0.128000
     20 H5          -1.7850     0.0130     5.0530 ha         1 SW2       0.138000
     21 H7          -2.1180    -1.7290     6.0020 h4         1 SW2       0.147500
     22 H8          -2.3070    -4.2910     6.5410 ha         1 SW2       0.136500
     23 H9          -1.5350    -5.6410     4.3440 ha         1 SW2       0.136500
     24 H10         -0.8950    -3.8730     2.5130 h4         1 SW2       0.147500
     25 H11         -0.6210    -2.1330     1.5380 ha         1 SW2       0.125000
     26 H13          1.8030    -0.1410    -0.9330 hn         1 SW2       0.223467
@<TRIPOS>BOND
     1     1     2 1   
     2     1     3 1   
     3     1    14 1   
     4     1    15 1   
     5     2    16 1   
     6     2    17 1   
     7     2    26 1   
     8     3     5 ar  
     9     3    13 ar  
    10     4     8 1   
    11     4     9 1   
    12     4    12 1   
    13     5     6 ar  
    14     5    18 1   
    15     6     7 ar  
    16     6    19 1   
    17     7     8 ar  
    18     7    20 1   
    19     8    13 ar  
    20     9    10 2   
    21     9    21 1   
    22    10    11 1   
    23    10    22 1   
    24    11    12 2   
    25    11    23 1   
    26    12    24 1   
    27    13    25 1   
@<TRIPOS>SUBSTRUCTURE
     1 SW2         1 TEMP              0 ****  ****    0 ROOT
