@<TRIPOS>MOLECULE
SW3
   21    21     1     0     0
SMALL
bcc


@<TRIPOS>ATOM
      1 C1           0.0000     0.0000     0.0000 c3         1 SW3       0.092200
      2 N1           5.3230    -1.3760     1.7320 nz         1 SW3       0.077400
      3 C2           1.5070     0.0000     0.0000 cc         1 SW3      -0.204600
      4 N2           3.6340    -0.0040    -0.6520 nc         1 SW3      -0.619800
      5 C3           2.3050     0.0000     1.0930 cd         1 SW3      -0.302300
      6 N3           2.3030    -0.0060    -1.0900 na         1 SW3       0.555400
      7 C4           3.6340    -0.0010     0.6570 cd         1 SW3       0.237600
      8 C5           4.8540     0.0030     1.5400 c3         1 SW3      -0.023500
      9 C6           1.8550    -0.0140    -2.4840 c3         1 SW3       0.004600
     10 H1          -0.3610    -0.8880    -0.5040 hc         1 SW3       0.026033
     11 H1A         -0.3610     0.8810    -0.5170 hc         1 SW3       0.026033
     12 H1B         -0.3610     0.0080     1.0210 hc         1 SW3       0.026033
     13 HN1          5.5540    -1.7770     0.8450 hn         1 SW3       0.223467
     14 HN1A         6.1340    -1.3730     2.3190 hn         1 SW3       0.223467
     15 H3           1.9730     0.0030     2.1250 ha         1 SW3       0.147000
     16 H5           4.6040     0.4370     2.5000 hx         1 SW3       0.084200
     17 H5A          5.6370     0.5880     1.0720 hx         1 SW3       0.084200
     18 H6           2.7160    -0.0180    -3.1410 h1         1 SW3       0.039700
     19 H6A          1.2580     0.8690    -2.6770 h1         1 SW3       0.039700
     20 H6B          1.2580    -0.9000    -2.6670 h1         1 SW3       0.039700
     21 H13          4.6030    -1.9140     2.1720 hn         1 SW3       0.223467
@<TRIPOS>BOND
     1     1     3 1   
     2     1    10 1   
     3     1    11 1   
     4     1    12 1   
     5     2     8 1   
     6     2    13 1   
     7     2    14 1   
     8     2    21 1   
     9     3     5 2   
    10     3     6 1   
    11     4     6 1   
    12     4     7 2   
    13     5     7 1   
    14     5    15 1   
    15     6     9 1   
    16     7     8 1   
    17     8    16 1   
    18     8    17 1   
    19     9    18 1   
    20     9    19 1   
    21     9    20 1   
@<TRIPOS>SUBSTRUCTURE
     1 SW3         1 TEMP              0 ****  ****    0 ROOT
