@<TRIPOS>MOLECULE
molecule
   38    40     1     0     0
SMALL
bcc


@<TRIPOS>ATOM
      1 O01          0.0000     0.0000     0.0000 oh         1 SW4      -0.613800
      2 C02          1.4290     0.0000     0.0000 c3         1 SW4       0.142400
      3 C03          1.9380     0.0000     1.4430 c3         1 SW4      -0.047400
      4 C04          3.4690    -0.0000     1.4420 cx         1 SW4      -0.123700
      5 C05          4.1750     1.2160     2.0450 cx         1 SW4      -0.129400
      6 C06          4.1750    -0.1180     2.7940 cx         1 SW4      -0.084400
      7 C07          5.4690    -0.8910     2.8380 ca         1 SW4      -0.133600
      8 C08          6.5490    -0.4900     2.0750 ca         1 SW4       0.373200
      9 N09          7.6840    -1.1600     2.1050 nb         1 SW4      -0.653000
     10 C10          7.8390    -2.2310     2.8590 ca         1 SW4       0.325200
     11 C11          6.8000    -2.6950     3.6520 ca         1 SW4       0.027800
     12 O12          6.9640    -3.7990     4.4260 os         1 SW4      -0.327900
     13 C13          8.2390    -4.4430     4.3780 c3         1 SW4       0.154400
     14 C14          8.2330    -5.6580     5.3080 cy         1 SW4       0.116500
     15 C15          9.6000    -6.3550     5.4240 cy         1 SW4      -0.101400
     16 C16          8.8200    -7.6800     5.3430 cy         1 SW4       0.106800
     17 N17          7.7640    -6.9020     4.6590 n6         1 SW4      -0.752200
     18 C18          5.5890    -2.0080     3.6480 ca         1 SW4      -0.123000
     19 H01         -0.3140     0.0160    -0.8890 ho         1 SW4       0.403000
     20 H021         1.7900     0.8850    -0.5110 h1         1 SW4       0.021700
     21 H022         1.7900    -0.8850    -0.5110 h1         1 SW4       0.021700
     22 H031         1.5770    -0.8840     1.9530 hc         1 SW4       0.057700
     23 H032         1.5770     0.8850     1.9530 hc         1 SW4       0.057700
     24 H04          3.9920    -0.4650     0.6150 hc         1 SW4       0.087700
     25 H051         5.1140     1.4900     1.5780 hc         1 SW4       0.079700
     26 H052         3.5250     1.9810     2.4510 hc         1 SW4       0.079700
     27 H06          3.5120    -0.1570     3.6500 hc         1 SW4       0.092700
     28 H08          6.4610     0.3850     1.4430 h4         1 SW4       0.025100
     29 H18          4.7580    -2.3450     4.2560 ha         1 SW4       0.152000
     30 H10          8.7870    -2.7550     2.8570 h4         1 SW4       0.025100
     31 H131         9.0060    -3.7480     4.6960 h1         1 SW4       0.048200
     32 H132         8.4420    -4.7650     3.3640 h1         1 SW4       0.048200
     33 H14          7.7660    -5.4840     6.2700 h1         1 SW4       0.064700
     34 H151        10.2390    -6.1850     4.5670 hc         1 SW4       0.062200
     35 H152        10.0760    -6.2000     6.3850 hc         1 SW4       0.062200
     36 H17          6.8700    -7.1550     5.0300 hn         1 SW4       0.335800
     37 H161         8.5130    -8.0530     6.3130 h1         1 SW4       0.058200
     38 H162         9.2930    -8.4130     4.7010 h1         1 SW4       0.058200
@<TRIPOS>BOND
     1     1     2 1
     2     2     3 1
     3     3     4 1
     4     4     5 1
     5     4     6 1
     6     5     6 1
     7     6     7 1
     8     7     8 ar
     9     7    18 ar
    10     8     9 ar
    11     9    10 ar
    12    10    11 ar
    13    11    12 1
    14    11    18 ar
    15    12    13 1
    16    13    14 1
    17    14    15 1
    18    14    17 1
    19    15    16 1
    20    16    17 1
    21     1    19 1
    22     2    20 1
    23     2    21 1
    24     3    22 1
    25     3    23 1
    26     4    24 1
    27     5    25 1
    28     5    26 1
    29     6    27 1
    30     8    28 1
    31    18    29 1
    32    10    30 1
    33    13    31 1
    34    13    32 1
    35    14    33 1
    36    15    34 1
    37    15    35 1
    38    17    36 1
    39    16    37 1
    40    16    38 1
@<TRIPOS>SUBSTRUCTURE
     1 SW4         1 TEMP              0 ****  ****    0 ROOT
