@<TRIPOS>MOLECULE
SWA
   27    28     1     0     0
SMALL
bcc


@<TRIPOS>ATOM
      1 C1         -0.0360   -0.0390    0.1460 c3        1 SWA      0.166100
      2 O1         -0.6980   -0.1440   -1.1030 oh        1 SWA     -0.604800
      3 C3          1.4880    0.0300   -0.0660 c3        1 SWA      0.142500
      4 N4          2.1510    0.1830    1.2370 n3        1 SWA     -0.752600
      5 C5          1.8310    1.4430    1.8650 c3        1 SWA      0.188800
      6 C6          0.3120    1.5770    2.0520 c3        1 SWA     -0.076400
      7 C2         -0.4790    1.2740    0.7950 c3        1 SWA     -0.078400
      8 C9          3.5350   -0.2200    1.0780 c3        1 SWA      0.144800
      9 C8          3.5190   -1.3480    0.0090 c3        1 SWA      0.106100
     10 O13         3.6160   -2.6290    0.5880 oh        1 SWA     -0.597800
     11 C7          2.1640   -1.1870   -0.7420 c3        1 SWA      0.103100
     12 O11         1.3350   -2.3210   -0.5920 oh        1 SWA     -0.603800
     13 HC1        -0.3010   -0.9200    0.7930 h1        1 SWA      0.061700
     14 HO1        -0.4670   -1.0140   -1.4550 ho        1 SWA      0.415000
     15 HC3         1.6890    0.9200   -0.7390 h1        1 SWA      0.040700
     16 HC51        2.2080    2.3260    1.2690 h1        1 SWA      0.032200
     17 HC52        2.3340    1.4690    2.8720 h1        1 SWA      0.032200
     18 HC61        0.0950    2.6250    2.3840 hc        1 SWA      0.048700
     19 HC62       -0.0160    0.8840    2.8710 hc        1 SWA      0.048700
     20 HC21       -1.5700    1.2090    1.0400 hc        1 SWA      0.053700
     21 HC22       -0.3510    2.1030    0.0500 hc        1 SWA      0.053700
     22 HC91        4.2080    0.6150    0.7380 h1        1 SWA      0.049200
     23 HC92        3.9150   -0.6090    2.0600 h1        1 SWA      0.049200
     24 HC8         4.3960   -1.2730   -0.6830 h1        1 SWA      0.085700
     25 H13O        2.9090   -2.7010    1.2460 ho        1 SWA      0.422000
     26 HC7         2.3280   -0.9920   -1.8350 h1        1 SWA      0.050700
     27 H11O        1.8770   -3.0960   -0.8000 ho        1 SWA      0.420000
@<TRIPOS>BOND
     1    1    2 1   
     2    1    3 1   
     3    1    7 1   
     4    1   13 1   
     5    2   14 1   
     6    3    4 1   
     7    3   11 1   
     8    3   15 1   
     9    4    5 1   
    10    4    8 1   
    11    5    6 1   
    12    5   16 1   
    13    5   17 1   
    14    6    7 1   
    15    6   18 1   
    16    6   19 1   
    17    7   20 1   
    18    7   21 1   
    19    8    9 1   
    20    8   22 1   
    21    8   23 1   
    22    9   10 1   
    23    9   11 1   
    24    9   24 1   
    25   10   25 1   
    26   11   12 1   
    27   11   26 1   
    28   12   27 1   
@<TRIPOS>SUBSTRUCTURE
     1 SWA         1 TEMP              0 ****  ****    0 ROOT
