@<TRIPOS>MOLECULE
SWE
   45    46     1     0     0
SMALL
bcc


@<TRIPOS>ATOM
      1 C1          0.0660    0.0530    0.0260 c3        1 SWE      0.307900
      2 O1         -0.5530   -1.0160    0.7190 os        1 SWE     -0.472600
      3 C2          1.5880   -0.1680    0.1500 c3        1 SWE      0.097100
      4 O2          1.9630   -1.4540   -0.2970 oh        1 SWE     -0.591800
      5 C3          2.0610    0.0470    1.5950 c3        1 SWE      0.074100
      6 O3          3.4750    0.1130    1.6620 oh        1 SWE     -0.607800
      7 C4          1.5300    1.3830    2.1410 c3        1 SWE      0.128100
      8 O4          1.8450    1.5230    3.5150 oh        1 SWE     -0.598800
      9 C5          0.0000    1.3870    2.0170 c3        1 SWE      0.097100
     10 O5         -0.3660    1.2450    0.6390 os        1 SWE     -0.430600
     11 C6         -0.6160    2.7060    2.4870 c3        1 SWE      0.137400
     12 O6         -2.0070    2.5790    2.6970 oh        1 SWE     -0.605800
     13 C1'        -2.1790   -1.5170   -1.0920 c3        1 SWE      0.126400
     14 O1'        -1.0380   -1.9900   -1.7710 oh        1 SWE     -0.595800
     15 C2'        -1.9090   -1.3230    0.4050 c3        1 SWE      0.318600
     16 O2'        -2.0070   -2.5930    1.0460 os        1 SWE     -0.417600
     17 C3'        -2.8870   -0.3520    1.1210 c3        1 SWE      0.098100
     18 O3'        -4.0380   -0.2000    0.3170 oh        1 SWE     -0.591800
     19 C4'        -3.2480   -1.0740    2.4430 c3        1 SWE      0.091100
     20 O4'        -2.7470   -0.2740    3.4990 oh        1 SWE     -0.602800
     21 C5'        -2.5420   -2.4410    2.3740 c3        1 SWE      0.067100
     22 C6'        -3.4980   -3.6100    2.6060 c3        1 SWE      0.129400
     23 O6'        -2.7990   -4.8320    2.6950 oh        1 SWE     -0.592800
     24 H1         -0.2590    0.1270   -1.0500 h2        1 SWE      0.115700
     25 H2          2.1180    0.5470   -0.5410 h1        1 SWE      0.101700
     26 HO2         1.3640   -2.0920    0.1160 ho        1 SWE      0.421000
     27 H3          1.6960   -0.8010    2.2410 h1        1 SWE      0.063700
     28 HO3         3.8120   -0.6430    1.1630 ho        1 SWE      0.424000
     29 H4          1.9780    2.2360    1.5590 h1        1 SWE      0.060700
     30 HO4         2.7990    1.3830    3.5910 ho        1 SWE      0.426000
     31 H5         -0.4310    0.5280    2.6060 h1        1 SWE      0.078700
     32 H6         -0.0970    3.0240    3.4300 h1        1 SWE      0.067700
     33 H6A        -0.5160    3.4970    1.6970 h1        1 SWE      0.067700
     34 HO6        -2.1410    1.8850    3.3580 ho        1 SWE      0.414000
     35 H1'        -3.0410   -2.2260   -1.2100 h1        1 SWE      0.076700
     36 H1'A       -2.4300   -0.5320   -1.5690 h1        1 SWE      0.076700
     37 HO1'       -0.7360   -2.7820   -1.3090 ho        1 SWE      0.414000
     38 H3'        -2.3940    0.6390    1.3300 h1        1 SWE      0.120700
     39 HO3'       -4.4350    0.6460    0.5600 ho        1 SWE      0.422000
     40 H4'        -4.3610   -1.1910    2.5420 h1        1 SWE      0.066700
     41 HO4'       -2.9120   -0.7530    4.3210 ho        1 SWE      0.414000
     42 H5'        -1.6760   -2.4850    3.0890 h1        1 SWE      0.080700
     43 H6'        -4.2620   -3.6530    1.7850 h1        1 SWE      0.055200
     44 H6'A       -4.0080   -3.4930    3.6000 h1        1 SWE      0.055200
     45 HO6'       -2.3140   -4.9420    1.8660 ho        1 SWE      0.414000
@<TRIPOS>BOND
     1    1    2 1   
     2    1    3 1   
     3    1   10 1   
     4    1   24 1   
     5    2   15 1   
     6    3    4 1   
     7    3    5 1   
     8    3   25 1   
     9    4   26 1   
    10    5    6 1   
    11    5    7 1   
    12    5   27 1   
    13    6   28 1   
    14    7    8 1   
    15    7    9 1   
    16    7   29 1   
    17    8   30 1   
    18    9   10 1   
    19    9   11 1   
    20    9   31 1   
    21   11   12 1   
    22   11   32 1   
    23   11   33 1   
    24   12   34 1   
    25   13   14 1   
    26   13   15 1   
    27   13   35 1   
    28   13   36 1   
    29   14   37 1   
    30   15   16 1   
    31   15   17 1   
    32   16   21 1   
    33   17   18 1   
    34   17   19 1   
    35   17   38 1   
    36   18   39 1   
    37   19   20 1   
    38   19   21 1   
    39   19   40 1   
    40   20   41 1   
    41   21   22 1   
    42   21   42 1   
    43   22   23 1   
    44   22   43 1   
    45   22   44 1   
    46   23   45 1   
@<TRIPOS>SUBSTRUCTURE
     1 SWE         1 TEMP              0 ****  ****    0 ROOT
