@<TRIPOS>MOLECULE
molecule
   45    46     1     0     0
SMALL
bcc


@<TRIPOS>ATOM
      1 C1           0.0000     0.0000     0.0000 c3         1 SWE       0.326900
      2 O1          -0.4780    -1.1930     0.6250 os         1 SWE      -0.415600
      3 C2           1.5300     0.0000     0.0000 c3         1 SWE       0.126100
      4 O2           2.0070    -1.1680    -0.6710 oh         1 SWE      -0.570800
      5 C3           2.0340     0.0000     1.4470 c3         1 SWE       0.117100
      6 O3           3.4610     0.0740     1.4560 oh         1 SWE      -0.611800
      7 C4           1.4530     1.2150     2.1780 c3         1 SWE       0.109100
      8 O4           1.8580     1.1850     3.5480 oh         1 SWE      -0.597800
      9 C5          -0.0750     1.1670     2.0940 c3         1 SWE       0.135100
     10 O5          -0.4750     1.1380     0.7220 os         1 SWE      -0.437600
     11 C6          -0.6610     2.4090     2.7700 c3         1 SWE       0.153400
     12 O6          -2.0860     2.3090     2.7950 oh         1 SWE      -0.600800
     13 C1'         -2.0930    -1.5060    -1.1620 c3         1 SWE       0.132400
     14 O1'         -1.1770    -2.4110    -1.7820 oh         1 SWE      -0.588800
     15 C2'         -1.8480    -1.4860     0.3480 c3         1 SWE       0.350600
     16 O2'         -2.2190    -2.7530     0.9340 os         1 SWE      -0.348600
     17 C3'         -2.7680    -0.4490     1.0290 c3         1 SWE       0.074100
     18 O3'         -3.9300    -0.2110     0.2330 oh         1 SWE      -0.604800
     19 C4'         -3.1560    -1.1140     2.3690 c3         1 SWE       0.085100
     20 O4'         -2.7010    -0.3250     3.4700 oh         1 SWE      -0.582800
     21 C5'         -2.4240    -2.4790     2.3370 c3         1 SWE       0.112100
     22 C6'         -3.2920    -3.5660     2.9720 c3         1 SWE       0.147400
     23 O6'         -2.5800    -4.8060     2.9700 oh         1 SWE      -0.592800
     24 H1          -0.3590     0.0470    -1.0210 h2         1 SWE       0.093700
     25 H2           1.8910     0.8870    -0.5070 h1         1 SWE       0.056700
     26 HO2          2.5640    -0.9140    -1.3890 ho         1 SWE       0.404000
     27 H3           1.7100    -0.9080     1.9420 h1         1 SWE       0.083700
     28 HO3          3.8120    -0.6830     1.8950 ho         1 SWE       0.417000
     29 H4           1.8110     2.1230     1.7080 h1         1 SWE       0.046700
     30 HO4          2.5230     1.8370     3.6940 ho         1 SWE       0.410000
     31 H5          -0.4340     0.2750     2.5920 h1         1 SWE       0.095700
     32 H6          -0.2870     2.4790     3.7840 h1         1 SWE       0.033200
     33 H6A         -0.3710     3.2930     2.2160 h1         1 SWE       0.033200
     34 HO6         -2.4520     3.1130     3.1240 ho         1 SWE       0.398000
     35 H1'         -3.1080    -1.8260    -1.3630 h1         1 SWE       0.045200
     36 H1'A        -1.9430    -0.5100    -1.5600 h1         1 SWE       0.045200
     37 HO1'        -1.5260    -2.6920    -2.6120 ho         1 SWE       0.399000
     38 H3'         -2.2280     0.4730     1.2080 h1         1 SWE       0.117700
     39 HO3'        -4.3320     0.6000     0.4970 ho         1 SWE       0.412000
     40 H4'         -4.2280    -1.2620     2.4190 h1         1 SWE       0.052700
     41 HO4'        -3.3470    -0.3410     4.1560 ho         1 SWE       0.400000
     42 H5'         -1.4710    -2.4050     2.8470 h1         1 SWE       0.086700
     43 H6'         -4.2080    -3.6750     2.4030 h1         1 SWE       0.026200
     44 H6'A        -3.5310    -3.2890     3.9910 h1         1 SWE       0.026200
     45 HO6'        -3.0770    -5.4550     3.4400 ho         1 SWE       0.399000
@<TRIPOS>BOND
     1     1     2 1
     2     1     3 1
     3     1    10 1
     4     2    15 1
     5     3     4 1
     6     3     5 1
     7     5     6 1
     8     5     7 1
     9     7     8 1
    10     7     9 1
    11     9    10 1
    12     9    11 1
    13    11    12 1
    14    13    14 1
    15    13    15 1
    16    15    16 1
    17    15    17 1
    18    16    21 1
    19    17    18 1
    20    17    19 1
    21    19    20 1
    22    19    21 1
    23    21    22 1
    24    22    23 1
    25     1    24 1
    26     3    25 1
    27     4    26 1
    28     5    27 1
    29     6    28 1
    30     7    29 1
    31     8    30 1
    32     9    31 1
    33    11    32 1
    34    11    33 1
    35    12    34 1
    36    13    35 1
    37    13    36 1
    38    14    37 1
    39    17    38 1
    40    18    39 1
    41    19    40 1
    42    20    41 1
    43    21    42 1
    44    22    43 1
    45    22    44 1
    46    23    45 1
@<TRIPOS>SUBSTRUCTURE
     1 SWE         1 TEMP              0 ****  ****    0 ROOT
