@<TRIPOS>MOLECULE
SWF
   39    41     1     0     0
SMALL
bcc


@<TRIPOS>ATOM
      1 C1          0.2340    0.3120    0.4570 c3        1 SWF     -0.203100
      2 C2          1.6470    0.7260    0.1940 c         1 SWF      0.568100
      3 O3          2.2680    1.4660    0.9640 o         1 SWF     -0.531100
      4 C4          2.2330    0.2000   -1.0870 c3        1 SWF     -0.173400
      5 C5          3.7310   -0.0740   -0.9890 c3        1 SWF      0.047800
      6 C6          4.0080   -1.4090   -0.3600 ca        1 SWF     -0.083300
      7 C7          4.7640   -1.4710    0.8170 ca        1 SWF     -0.118500
      8 C8          5.0240   -2.7000    1.4210 ca        1 SWF     -0.133500
      9 C9          4.5360   -3.8780    0.8560 ca        1 SWF     -0.128000
     10 C10         3.7860   -3.8220   -0.3200 ca        1 SWF     -0.133500
     11 C11         3.5250   -2.5950   -0.9250 ca        1 SWF     -0.118500
     12 C12         4.4060    0.0430   -2.3220 cc        1 SWF     -0.230400
     13 C13         3.8960   -0.3800   -3.5180 cd        1 SWF      0.216900
     14 O14         2.6430   -0.9390   -3.5300 oh        1 SWF     -0.487100
     15 C15         4.6550   -0.2230   -4.7480 ca        1 SWF     -0.182800
     16 C16         4.1940   -0.6080   -6.0210 ca        1 SWF     -0.086000
     17 C17         4.9880   -0.4330   -7.1430 ca        1 SWF     -0.153000
     18 C18         6.2660    0.1330   -7.0290 ca        1 SWF     -0.079000
     19 C19         6.7490    0.5320   -5.7940 ca        1 SWF     -0.145000
     20 C20         5.9360    0.3560   -4.6550 ca        1 SWF      0.170100
     21 O21         6.4750    0.7880   -3.4700 os        1 SWF     -0.325200
     22 C22         5.7260    0.6640   -2.2950 c         1 SWF      0.735800
     23 O23         6.3500    1.1390   -1.3470 o         1 SWF     -0.556500
     24 H1C1        0.2120   -0.7760    0.7130 hc        1 SWF      0.063700
     25 H1C2       -0.1980    0.8910    1.3080 hc        1 SWF      0.063700
     26 H1C3       -0.3900    0.4770   -0.4540 hc        1 SWF      0.063700
     27 H4C1        2.0490    0.9730   -1.8810 hc        1 SWF      0.073700
     28 H4C2        1.6910   -0.7320   -1.3980 hc        1 SWF      0.073700
     29 H5          4.1740    0.7310   -0.3200 hc        1 SWF      0.105700
     30 H7          5.1560   -0.5450    1.2660 ha        1 SWF      0.140500
     31 H8          5.6180   -2.7390    2.3460 ha        1 SWF      0.130000
     32 H9          4.7420   -4.8460    1.3330 ha        1 SWF      0.130000
     33 H10         3.4020   -4.7490   -0.7710 ha        1 SWF      0.130000
     34 H11         2.9390   -2.5540   -1.8570 ha        1 SWF      0.140500
     35 H14         2.4780   -1.3290   -4.4010 ho        1 SWF      0.429000
     36 H16         3.1930   -1.0470   -6.1440 ha        1 SWF      0.129000
     37 H17         4.6160   -0.7390   -8.1320 ha        1 SWF      0.143000
     38 H18         6.8880    0.2630   -7.9290 ha        1 SWF      0.145000
     39 H19         7.7450    0.9830   -5.6760 ha        1 SWF      0.165000
@<TRIPOS>BOND
     1    1    2 1
     2    1   24 1
     3    1   25 1
     4    1   26 1
     5    2    3 2
     6    2    4 1
     7    4    5 1
     8    4   27 1
     9    4   28 1
    10    5    6 1
    11    5   12 1
    12    5   29 1
    13    6    7 ar
    14    6   11 ar
    15    7    8 ar
    16    7   30 1
    17    8    9 ar
    18    8   31 1
    19    9   10 ar
    20    9   32 1
    21   10   11 ar
    22   10   33 1
    23   11   34 1
    24   12   13 2
    25   12   22 1
    26   13   14 1
    27   13   15 1
    28   14   35 1
    29   15   16 ar
    30   15   20 ar
    31   16   17 ar
    32   16   36 1
    33   17   18 ar
    34   17   37 1
    35   18   19 ar
    36   18   38 1
    37   19   20 ar
    38   19   39 1
    39   20   21 1
    40   21   22 1
    41   22   23 2
@<TRIPOS>SUBSTRUCTURE
     1 SWF         1 TEMP              0 ****  ****    0 ROOT
