@<TRIPOS>MOLECULE
molecule
   24    25     1     0     0
SMALL
bcc


@<TRIPOS>ATOM
      1 C1           0.0000     0.0000     0.0000 ca         1 SWX      -0.121000
      2 C2           0.0100     0.0080     2.4100 ca         1 SWX      -0.121000
      3 C3           1.3790     0.0000     0.0000 ca         1 SWX      -0.101500
      4 C4           1.3890     0.0010     2.3990 ca         1 SWX      -0.101500
      5 C5          -2.9010     0.0130     0.0180 ca         1 SWX       0.461700
      6 C6          -2.8920     0.0200     2.4150 ca         1 SWX       0.461700
      7 C7          -4.8570     0.0250     1.2240 ca         1 SWX       0.674900
      8 C8          -0.6950     0.0070     1.2080 cp         1 SWX      -0.029000
      9 C9          -2.1790     0.0140     1.2130 cp         1 SWX      -0.283600
     10 C10          2.0740     0.0000     1.1970 ca         1 SWX      -0.080300
     11 C11          3.5810    -0.0080     1.1900 c3         1 SWX       0.186700
     12 N12         -4.2220     0.0190     0.0680 nb         1 SWX      -0.733000
     13 N13         -4.2130     0.0260     2.3750 nb         1 SWX      -0.733000
     14 O14          4.0500    -1.3570     1.1860 oh         1 SWX      -0.602800
     15 H1          -0.5420    -0.0010    -0.9380 ha         1 SWX       0.133000
     16 H2          -0.5250     0.0110     3.3520 ha         1 SWX       0.133000
     17 H3           1.9200    -0.0030    -0.9390 ha         1 SWX       0.136500
     18 H4           1.9370     0.0020     3.3330 ha         1 SWX       0.136500
     19 H6          -2.3690     0.0210     3.3640 h4         1 SWX       0.033100
     20 H7          -5.9400     0.0300     1.2280 h5         1 SWX       0.061100
     21 H8           3.9490     0.5000     2.0740 h1         1 SWX       0.026700
     22 H9           3.9410     0.5020     0.3050 h1         1 SWX       0.026700
     23 H10          4.9930    -1.3620     1.1830 ho         1 SWX       0.403000
     24 H5          -2.3870     0.0080    -0.9360 h4         1 SWX       0.033100
@<TRIPOS>BOND
     1     4     2 ar
     2     4    10 ar
     3    11    10 1
     4    11    14 1
     5     2     8 ar
     6    10     3 ar
     7     5    12 ar
     8     5     9 ar
     9     8     9 1
    10     8     1 ar
    11    12     7 ar
    12     9     6 ar
    13     3     1 ar
    14     7    13 ar
    15     6    13 ar
    16     1    15 1
    17     2    16 1
    18     3    17 1
    19     4    18 1
    20     5    24 1
    21     6    19 1
    22     7    20 1
    23    11    21 1
    24    11    22 1
    25    14    23 1
@<TRIPOS>SUBSTRUCTURE
     1 SWX         1 TEMP              0 ****  ****    0 ROOT
