@<TRIPOS>MOLECULE
SWY
   61    66     1     0     0
SMALL
bcc


@<TRIPOS>ATOM
      1 OAQ          0.0000     0.0000     0.0000 o          1 SWY      -0.649000
      2 CAP          1.2160     0.0000     0.0000 c          1 SWY       0.651600
      3 CAR          1.9470     0.0000     1.2760 ca         1 SWY      -0.182600
      4 CBC          3.3610    -0.0000     1.2480 ca         1 SWY       0.020000
      5 CAS          1.2980     0.0000     2.5010 ca         1 SWY       0.012000
      6 CAT          2.0330     0.0000     3.6810 ca         1 SWY      -0.130000
      7 CAU          3.3990    -0.0000     3.6730 ca         1 SWY      -0.038000
      8 CAV          4.0950    -0.0000     2.4520 ca         1 SWY      -0.066000
      9 CAW          5.5000     0.0000     2.3900 ca         1 SWY      -0.038000
     10 CAX          6.1310     0.0010     1.1800 ca         1 SWY      -0.130000
     11 CAY          5.4180     0.0010    -0.0140 ca         1 SWY       0.012000
     12 CAZ          4.0310    -0.0010     0.0040 ca         1 SWY      -0.182600
     13 CBA          3.2310     0.0000    -1.2300 c          1 SWY       0.651600
     14 OBB          3.7870    -0.0000    -2.3110 o          1 SWY      -0.649000
     15 NAO          1.8850    -0.0050    -1.1680 n          1 SWY      -0.100400
     16 CAN          1.1220    -0.0100    -2.4190 c3         1 SWY       0.027000
     17 CAM          0.8570     1.4300    -2.8610 c3         1 SWY      -0.033400
     18 CAL          0.0590     1.4230    -4.1670 c3         1 SWY       0.107700
     19 SAK         -0.2550     3.1280    -4.6890 ss         1 SWY      -0.383400
     20 CAJ         -1.1600     2.8310    -6.1710 cc         1 SWY       0.306800
     21 NBD         -1.4700     1.6560    -6.6740 nd         1 SWY      -0.344000
     22 NBE         -2.1360     1.8030    -7.7640 nd         1 SWY      -0.299000
     23 CBF         -2.2910     3.0810    -8.0260 cc         1 SWY       0.218000
     24 CBG         -2.9980     3.6590    -9.1880 ca         1 SWY      -0.070500
     25 CBH         -3.8460     2.8750    -9.9780 ca         1 SWY      -0.222300
     26 CBI         -4.4850     3.4550   -11.0520 ca         1 SWY       0.406700
     27 NBJ         -4.3070     4.7320   -11.3390 nb         1 SWY      -0.583000
     28 CBK         -3.5160     5.5060   -10.6210 ca         1 SWY       0.406700
     29 CBL         -2.8430     5.0100    -9.5250 ca         1 SWY      -0.222300
     30 NAI         -1.6750     3.7800    -7.0100 na         1 SWY       0.318200
     31 CAF         -1.5940     5.1720    -6.8680 ca         1 SWY      -0.253200
     32 CAE         -0.3610     5.8060    -6.9350 ca         1 SWY      -0.021500
     33 CAD         -0.2800     7.1780    -6.7950 ca         1 SWY      -0.174500
     34 CAC         -1.4320     7.9220    -6.5860 ca         1 SWY       0.181100
     35 OAB         -1.3530     9.2720    -6.4480 os         1 SWY      -0.301900
     36 CAA         -2.5790     9.9760    -6.2360 c3         1 SWY       0.243700
     37 CAH         -2.6650     7.2900    -6.5200 ca         1 SWY      -0.174500
     38 CAG         -2.7470     5.9190    -6.6650 ca         1 SWY      -0.021500
     39 HAS          0.2150     0.0010     2.5380 ha         1 SWY       0.125000
     40 HAT          1.5100     0.0010     4.6300 ha         1 SWY       0.110000
     41 HAU          3.9460     0.0000     4.6080 ha         1 SWY       0.107000
     42 HAW          6.0820     0.0010     3.3040 ha         1 SWY       0.107000
     43 HAX          7.2140     0.0010     1.1490 ha         1 SWY       0.110000
     44 HAY          5.9470     0.0010    -0.9590 ha         1 SWY       0.125000
     45 HAN1         1.6900    -0.5240    -3.1860 h1         1 SWY       0.052700
     46 HAN2         0.1790    -0.5200    -2.2650 h1         1 SWY       0.052700
     47 HAM1         0.2900     1.9440    -2.0940 hc         1 SWY       0.035700
     48 HAM2         1.8000     1.9400    -3.0160 hc         1 SWY       0.035700
     49 HAL1        -0.8840     0.9140    -4.0120 h1         1 SWY       0.055700
     50 HAL2         0.6260     0.9090    -4.9340 h1         1 SWY       0.055700
     51 HBH         -3.9970     1.8270    -9.7490 ha         1 SWY       0.134500
     52 HBL         -2.1950     5.6520    -8.9400 ha         1 SWY       0.134500
     53 HBI         -5.1430     2.8560   -11.6700 h4         1 SWY      -0.019400
     54 HBK         -3.4010     6.5490   -10.8910 h4         1 SWY      -0.019400
     55 HAE          0.5390     5.2240    -7.0980 ha         1 SWY       0.121500
     56 HAG         -3.7100     5.4260    -6.6130 ha         1 SWY       0.121500
     57 HAD          0.6820     7.6720    -6.8470 ha         1 SWY       0.129000
     58 HAH         -3.5640     7.8720    -6.3590 ha         1 SWY       0.129000
     59 HAA1        -2.3740    11.0340    -6.1300 h1         1 SWY       0.001700
     60 HAA2        -3.0550     9.6080    -5.3360 h1         1 SWY       0.001700
     61 HAA3        -3.2360     9.8180    -7.0830 h1         1 SWY       0.001700
@<TRIPOS>BOND
     1     1     2 2   
     2     2     3 1   
     3     2    15 1   
     4     3     4 ar  
     5     3     5 ar  
     6     4     8 ar  
     7     4    12 ar  
     8     5     6 ar  
     9     5    39 1   
    10     6     7 ar  
    11     6    40 1   
    12     7     8 ar  
    13     7    41 1   
    14     8     9 ar  
    15     9    10 ar  
    16     9    42 1   
    17    10    11 ar  
    18    10    43 1   
    19    11    12 ar  
    20    11    44 1   
    21    12    13 1   
    22    13    14 2   
    23    13    15 1   
    24    15    16 1   
    25    16    17 1   
    26    16    45 1   
    27    16    46 1   
    28    17    18 1   
    29    17    47 1   
    30    17    48 1   
    31    18    19 1   
    32    18    49 1   
    33    18    50 1   
    34    19    20 1   
    35    20    21 2   
    36    20    30 1   
    37    21    22 1   
    38    22    23 2   
    39    23    24 1   
    40    23    30 1   
    41    24    25 ar  
    42    24    29 ar  
    43    25    26 ar  
    44    25    51 1   
    45    26    27 ar  
    46    26    53 1   
    47    27    28 ar  
    48    28    29 ar  
    49    28    54 1   
    50    29    52 1   
    51    30    31 1   
    52    31    32 ar  
    53    31    38 ar  
    54    32    33 ar  
    55    32    55 1   
    56    33    34 ar  
    57    33    57 1   
    58    34    35 1   
    59    34    37 ar  
    60    35    36 1   
    61    36    59 1   
    62    36    60 1   
    63    36    61 1   
    64    37    38 ar  
    65    37    58 1   
    66    38    56 1   
@<TRIPOS>SUBSTRUCTURE
     1 SWY         1 TEMP              0 ****  ****    0 ROOT
