@<TRIPOS>MOLECULE
SX
    2     1     1     0     0
SMALL
bcc


@<TRIPOS>ATOM
      1 S           0.0000    0.0000    0.4960 s         1 SX       0.185700
      2 O          -0.0000   -0.0000   -0.9650 o         1 SX      -0.185700
@<TRIPOS>BOND
     1    1    2 2   
@<TRIPOS>SUBSTRUCTURE
     1 SX          1 TEMP              0 ****  ****    0 ROOT
