@<TRIPOS>MOLECULE
molecule
    2     1     1     0     0
SMALL
bcc


@<TRIPOS>ATOM
      1 S            0.0000     0.0000     0.4670 s          1 SX        0.218700
      2 O            0.0000     0.0000    -0.9360 o          1 SX       -0.218700
@<TRIPOS>BOND
     1     1     2 2
@<TRIPOS>SUBSTRUCTURE
     1 SX          1 TEMP              0 ****  ****    0 ROOT
