@<TRIPOS>MOLECULE
molecule
   47    49     1     0     0
SMALL
bcc


@<TRIPOS>ATOM
      1 C            0.0000     0.0000     0.0000 c          1 SX0       0.865600
      2 N            1.9960     1.2000    -0.6930 nz         1 SX0      -0.803600
      3 OXT         -0.6050     1.0300    -0.1810 o          1 SX0      -0.763300
      4 N1           8.8200    -4.8250     9.8400 nb         1 SX0      -0.774000
      5 C2           8.8740    -3.5070     9.7710 ca         1 SX0       0.715900
      6 N3           8.4530    -2.8310     8.7250 nb         1 SX0      -0.773000
      7 C4           7.9460    -3.4610     7.6670 ca         1 SX0       0.497800
      8 C5           7.8680    -4.8660     7.6940 ca         1 SX0      -0.327400
      9 C6           8.3290    -5.5430     8.8330 ca         1 SX0       0.771200
     10 N6           8.2740    -6.9230     8.9090 nv         1 SX0      -1.076500
     11 C7           7.2790    -5.2670     6.4180 cc         1 SX0      -0.082500
     12 C8           7.0440    -4.1400     5.7270 cd         1 SX0      -0.029100
     13 N9           7.4400    -3.0530     6.4640 na         1 SX0      -0.151100
     14 CA           1.5070     0.0000     0.0000 c3         1 SX0       0.043500
     15 CB           2.0170     0.0000     1.4420 c3         1 SX0      -0.203400
     16 SD           4.1470    -0.1250     3.1540 ss         1 SX0      -0.245200
     17 CG           3.5420    -0.1250     1.4440 c3         1 SX0       0.012700
     18 C1'          7.3340    -1.6580     6.0280 c3         1 SX0       0.283800
     19 C2'          8.6350    -1.2150     5.3210 c3         1 SX0      -0.309900
     20 O2'          9.4730    -0.4900     6.2240 oh         1 SX0      -0.570800
     21 C3'          8.1500    -0.2970     4.1780 c3         1 SX0       0.073100
     22 O3'          8.6710     1.0230     4.3400 oh         1 SX0      -0.551800
     23 C4'          6.6120    -0.2930     4.3280 c3         1 SX0       0.093100
     24 O4'          6.3060    -1.5220     5.0220 os         1 SX0      -0.374600
     25 C5'          5.9430    -0.2790     2.9520 c3         1 SX0      -0.010300
     26 O           -0.6710    -1.1460     0.1960 o          1 SX0      -0.763300
     27 HN           1.4070     1.3950    -1.4780 hn         1 SX0       0.439467
     28 HNA          1.9800     1.9780    -0.0640 hn         1 SX0       0.439467
     29 HN6          9.0530    -7.4730     8.6040 hn         1 SX0       0.446300
     30 HN6A         7.4710    -7.3710     9.3040 hn         1 SX0       0.446300
     31 HA           1.8680    -0.8840    -0.5110 hx         1 SX0       0.080700
     32 HB           2.1370    -0.8800     0.8220 hc         1 SX0       0.131700
     33 HBA          1.4250    -0.3760     2.2680 hc         1 SX0       0.131700
     34 HG           3.8290    -1.0510     0.9590 h1         1 SX0       0.035700
     35 HGA          3.9730     0.7120     0.9080 h1         1 SX0       0.035700
     36 H1'          7.1240    -1.0080     6.8690 h2         1 SX0       0.068700
     37 H2'          8.0830    -0.7820     6.1460 h1         1 SX0       0.318700
     38 HO2'         9.9450    -1.2330     5.8860 ho         1 SX0       0.494000
     39 H3'          8.4340    -0.7090     3.2180 h1         1 SX0       0.072700
     40 HO3'         8.9300     0.6840     3.4990 ho         1 SX0       0.417000
     41 H4'          6.2940     0.5590     4.9170 h1         1 SX0       0.085700
     42 H5'          6.3000    -1.2600     2.6640 h1         1 SX0       0.076700
     43 H5'A         6.3510     0.5000     2.3190 h1         1 SX0       0.076700
     44 Br           6.9150    -7.0340     5.8510 br         1 SX0      -0.040700
     45 H8           6.6060    -4.0960     4.7370 h4         1 SX0       0.194000
     46 HN3          2.9290     1.0400    -1.0180 hn         1 SX0       0.439467
     47 H2           9.2810    -2.9600    10.6130 h5         1 SX0       0.064100
@<TRIPOS>BOND
     1    14     1 1
     2     1    26 1
     3     1     3 1
     4    14     2 1
     5     2    27 1
     6     2    28 1
     7    44    11 1
     8     9     4 ar
     9     4     5 ar
    10     5     6 ar
    11     5    47 1
    12     7     6 ar
    13     8     7 ar
    14     7    13 1
    15     9     8 ar
    16    11     8 1
    17    10     9 1
    18    10    29 1
    19    10    30 1
    20    11    12 2
    21    12    13 1
    22    12    45 1
    23    13    18 1
    24    15    14 1
    25    14    31 1
    26    15    17 1
    27    15    32 1
    28    15    33 1
    29    25    16 1
    30    16    17 1
    31    17    34 1
    32    17    35 1
    33    19    18 1
    34    18    24 1
    35    18    36 1
    36    20    19 1
    37    19    21 1
    38    19    37 1
    39    20    38 1
    40    22    21 1
    41    21    23 1
    42    21    39 1
    43    22    40 1
    44    24    23 1
    45    23    25 1
    46    23    41 1
    47    25    42 1
    48    25    43 1
    49    46     2 1
@<TRIPOS>SUBSTRUCTURE
     1 SX0         1 TEMP              0 ****  ****    0 ROOT
