@<TRIPOS>MOLECULE
SX1
   16    16     1     0     0
SMALL
bcc


@<TRIPOS>ATOM
      1 O1           0.0000     0.0000     0.0000 o          1 SX1      -0.884800
      2 C7           1.3480     0.0000     0.0000 c          1 SX1       0.980200
      3 O2           1.9550     0.0000     1.0530 o          1 SX1      -0.884800
      4 C6           2.0850     0.0000    -1.2750 ca         1 SX1      -0.130600
      5 C1           3.4840     0.1180    -1.2820 ca         1 SX1       0.067600
      6 N1           4.1810     0.2360    -0.0870 nv         1 SX1      -0.488200
      7 C5           1.3970    -0.1240    -2.4850 ca         1 SX1      -0.032000
      8 C4           2.0920    -0.1230    -3.6740 ca         1 SX1       0.008100
      9 Br1          1.1590    -0.2910    -5.3110 br         1 SX1      -0.216100
     10 C3           3.4750    -0.0000    -3.6780 ca         1 SX1      -0.098000
     11 C2           4.1680     0.1170    -2.4910 ca         1 SX1      -0.179000
     12 HN1          4.8570    -0.4570     0.1680 hn         1 SX1       0.266800
     13 HN1A         4.0460     1.0400     0.4940 hn         1 SX1       0.266800
     14 H5           0.3200    -0.2420    -2.4870 ha         1 SX1       0.141000
     15 H3           4.0120    -0.0010    -4.6190 ha         1 SX1       0.093000
     16 H2           5.2470     0.2100    -2.5020 ha         1 SX1       0.092000
@<TRIPOS>BOND
     1     1     2 1   
     2     2     3 1   
     3     2     4 1   
     4     4     5 ar  
     5     4     7 ar  
     6     5     6 1   
     7     5    11 ar  
     8     6    12 1   
     9     6    13 1   
    10     7     8 ar  
    11     7    14 1   
    12     8     9 1   
    13     8    10 ar  
    14    10    11 ar  
    15    10    15 1   
    16    11    16 1   
@<TRIPOS>SUBSTRUCTURE
     1 SX1         1 TEMP              0 ****  ****    0 ROOT
