@<TRIPOS>MOLECULE
molecule
   16    16     1     0     0
SMALL
bcc


@<TRIPOS>ATOM
      1 O1           0.0000     0.0000     0.0000 o          1 SX1      -0.835300
      2 C7           1.3480     0.0000     0.0000 c          1 SX1       0.886200
      3 O2           1.9550     0.0000     1.0530 o          1 SX1      -0.835300
      4 C6           2.0850     0.0000    -1.2750 ca         1 SX1      -0.134600
      5 C1           3.4840     0.1180    -1.2820 ca         1 SX1       0.209600
      6 N1           4.1810     0.2360    -0.0870 nv         1 SX1      -0.940200
      7 C5           1.3970    -0.1240    -2.4850 ca         1 SX1      -0.053000
      8 C4           2.0920    -0.1230    -3.6740 ca         1 SX1      -0.061900
      9 Br1          1.1590    -0.2910    -5.3110 br         1 SX1      -0.165100
     10 C3           3.4750    -0.0000    -3.6780 ca         1 SX1      -0.114000
     11 C2           4.1680     0.1170    -2.4910 ca         1 SX1      -0.201000
     12 HN1          4.8570    -0.4570     0.1680 hn         1 SX1       0.425300
     13 HN1A         4.0460     1.0400     0.4940 hn         1 SX1       0.425300
     14 H5           0.3200    -0.2420    -2.4870 ha         1 SX1       0.167000
     15 H3           4.0120    -0.0010    -4.6190 ha         1 SX1       0.114000
     16 H2           5.2470     0.2100    -2.5020 ha         1 SX1       0.113000
@<TRIPOS>BOND
     1     1     2 1
     2     3     2 1
     3     2     4 1
     4     5     4 ar
     5     4     7 ar
     6     6     5 1
     7     5    11 ar
     8     6    12 1
     9     6    13 1
    10     7     8 ar
    11     7    14 1
    12    10     8 ar
    13     8     9 1
    14    11    10 ar
    15    10    15 1
    16    11    16 1
@<TRIPOS>SUBSTRUCTURE
     1 SX1         1 TEMP              0 ****  ****    0 ROOT
