@<TRIPOS>MOLECULE
molecule
   23    23     1     0     0
SMALL
bcc


@<TRIPOS>ATOM
      1 Br1          0.0000     0.0000     0.0000 br         1 SX2      -0.117100
      2 C8           1.8910     0.0000     0.0000 ca         1 SX2      -0.203200
      3 C9           2.5890     0.0000     1.1930 ca         1 SX2       0.485200
      4 N2           3.9080     0.0000     1.2040 nb         1 SX2      -0.672000
      5 C7           2.5930    -0.0050    -1.1980 ca         1 SX2      -0.044000
      6 C6           3.9750    -0.0050    -1.1530 ca         1 SX2      -0.314300
      7 C5           4.6120     0.0010     0.0830 ca         1 SX2       0.583200
      8 N1           6.0050     0.0010     0.1420 ns         1 SX2      -0.559400
      9 C4           6.6290     0.1100     1.3320 c          1 SX2       0.630100
     10 O3           5.9820     0.1150     2.3580 o          1 SX2      -0.535100
     11 C3           8.1300     0.2260     1.3880 c3         1 SX2      -0.134400
     12 C2           8.5800     0.3360     2.8460 c3         1 SX2      -0.170400
     13 C1          10.0810     0.4520     2.9020 c          1 SX2       0.890600
     14 O2          10.7020     0.5600     4.0870 o          1 SX2      -0.854800
     15 O1          10.7260     0.4470     1.8810 o          1 SX2      -0.854800
     16 H9           2.0460    -0.0010     2.1300 h4         1 SX2       0.035100
     17 H7           2.0700    -0.0090    -2.1460 ha         1 SX2       0.140000
     18 H6           4.5540    -0.0060    -2.0680 ha         1 SX2       0.137000
     19 HN1          6.5410    -0.1100    -0.6960 hn         1 SX2       0.329500
     20 H3           8.5770    -0.6520     0.9380 hc         1 SX2       0.066700
     21 H3A          8.4450     1.1090     0.8460 hc         1 SX2       0.066700
     22 H2           8.2650    -0.5470     3.3880 hc         1 SX2       0.047200
     23 H2A          8.1330     1.2140     3.2960 hc         1 SX2       0.047200
@<TRIPOS>BOND
     1     1     2 1
     2     2     5 ar
     3     2     3 ar
     4     3     4 ar
     5     3    16 1
     6     4     7 ar
     7     5     6 ar
     8     5    17 1
     9     6     7 ar
    10     6    18 1
    11     7     8 1
    12     9     8 1
    13     8    19 1
    14    10     9 2
    15     9    11 1
    16    11    12 1
    17    11    20 1
    18    11    21 1
    19    13    12 1
    20    12    22 1
    21    12    23 1
    22    15    13 1
    23    13    14 1
@<TRIPOS>SUBSTRUCTURE
     1 SX2         1 TEMP              0 ****  ****    0 ROOT
