@<TRIPOS>MOLECULE
SX2
   23    23     1     0     0
SMALL
bcc


@<TRIPOS>ATOM
      1 Br1          0.0000     0.0000     0.0000 br         1 SX2      -0.146100
      2 C8           1.8910     0.0000     0.0000 ca         1 SX2      -0.141200
      3 C9           2.5890     0.0000     1.1930 ca         1 SX2       0.458200
      4 N2           3.9080     0.0000     1.2040 nb         1 SX2      -0.551000
      5 C7           2.5930    -0.0050    -1.1980 ca         1 SX2      -0.025000
      6 C6           3.9750    -0.0050    -1.1530 ca         1 SX2      -0.288300
      7 C5           4.6120     0.0010     0.0830 ca         1 SX2       0.393200
      8 N1           6.0050     0.0010     0.1420 ns         1 SX2      -0.132400
      9 C4           6.6290     0.1100     1.3320 c          1 SX2       0.534100
     10 O3           5.9820     0.1150     2.3580 o          1 SX2      -0.570100
     11 C3           8.1300     0.2260     1.3880 c3         1 SX2      -0.079400
     12 C2           8.5800     0.3360     2.8460 c3         1 SX2      -0.122400
     13 C1          10.0810     0.4520     2.9020 c          1 SX2       0.979600
     14 O2          10.7020     0.5600     4.0870 o          1 SX2      -0.905800
     15 O1          10.7260     0.4470     1.8810 o          1 SX2      -0.905800
     16 H9           2.0460    -0.0010     2.1300 h4         1 SX2      -0.011900
     17 H7           2.0700    -0.0090    -2.1460 ha         1 SX2       0.110000
     18 H6           4.5540    -0.0060    -2.0680 ha         1 SX2       0.116000
     19 HN1          6.5410    -0.1100    -0.6960 hn         1 SX2       0.173500
     20 H3           8.5770    -0.6520     0.9380 hc         1 SX2       0.035700
     21 H3A          8.4450     1.1090     0.8460 hc         1 SX2       0.035700
     22 H2           8.2650    -0.5470     3.3880 hc         1 SX2       0.021200
     23 H2A          8.1330     1.2140     3.2960 hc         1 SX2       0.021200
@<TRIPOS>BOND
     1     1     2 1   
     2     2     3 ar  
     3     2     5 ar  
     4     3     4 ar  
     5     3    16 1   
     6     4     7 ar  
     7     5     6 ar  
     8     5    17 1   
     9     6     7 ar  
    10     6    18 1   
    11     7     8 1   
    12     8     9 1   
    13     8    19 1   
    14     9    10 2   
    15     9    11 1   
    16    11    12 1   
    17    11    20 1   
    18    11    21 1   
    19    12    13 1   
    20    12    22 1   
    21    12    23 1   
    22    13    14 1   
    23    13    15 1   
@<TRIPOS>SUBSTRUCTURE
     1 SX2         1 TEMP              0 ****  ****    0 ROOT
