@<TRIPOS>MOLECULE
molecule
   37    38     1     0     0
SMALL
bcc


@<TRIPOS>ATOM
      1 Br1          0.0000     0.0000     0.0000 br         1 SX3      -0.100100
      2 C11          1.8900     0.0000     0.0000 ca         1 SX3      -0.079900
      3 C10          2.5760     0.0000     1.1960 ca         1 SX3      -0.041000
      4 C12          2.5800    -0.0060    -1.2030 ca         1 SX3      -0.047000
      5 C13          3.9600    -0.0060    -1.2170 ca         1 SX3      -0.204000
      6 C14          4.6680    -0.0010    -0.0210 ca         1 SX3       0.253600
      7 N2           6.0580    -0.0020    -0.0330 nv         1 SX3      -0.911200
      8 C9           3.9740     0.0000     1.1980 ca         1 SX3      -0.216600
      9 C8           4.7130     0.0010     2.4740 c          1 SX3       0.682700
     10 O1           5.6070     0.8040     2.6570 o          1 SX3      -0.609100
     11 N1           4.3970    -0.8890     3.4360 n          1 SX3      -0.486800
     12 C6           3.4090    -1.9450     3.1840 c3         1 SX3       0.105000
     13 C4           4.0370    -3.3000     3.5260 c3         1 SX3      -0.092700
     14 C5           2.9810    -4.4000     3.3990 c3         1 SX3      -0.087600
     15 C3           4.5660    -3.2650     4.9620 c3         1 SX3      -0.073400
     16 C7           5.0410    -0.8220     4.7550 c3         1 SX3       0.105000
     17 C2           5.6460    -2.1870     5.0820 c3         1 SX3      -0.092700
     18 C1           6.1980    -2.1740     6.5090 c3         1 SX3      -0.087600
     19 H10          2.0330     0.0010     2.1330 ha         1 SX3       0.149000
     20 H12          2.0330    -0.0090    -2.1380 ha         1 SX3       0.144000
     21 H13          4.4920    -0.0100    -2.1600 ha         1 SX3       0.141000
     22 HN2          6.5640    -0.4430     0.7090 hn         1 SX3       0.440300
     23 HN2A         6.5520     0.4750    -0.7620 hn         1 SX3       0.440300
     24 H6           3.1240    -1.9320     2.1380 h1         1 SX3       0.059700
     25 H6A          2.5380    -1.7830     3.8060 h1         1 SX3       0.059700
     26 H4           4.8570    -3.4990     2.8450 hc         1 SX3       0.058700
     27 H5           3.4190    -5.3540     3.6630 hc         1 SX3       0.037367
     28 H5A          2.6200    -4.4380     2.3780 hc         1 SX3       0.037367
     29 H5B          2.1550    -4.1850     4.0660 hc         1 SX3       0.037367
     30 H3           3.7530    -3.0370     5.6400 hc         1 SX3       0.045200
     31 H3A          4.9920    -4.2290     5.2120 hc         1 SX3       0.045200
     32 H7           5.8240    -0.0740     4.7380 h1         1 SX3       0.059700
     33 H7A          4.3030    -0.5660     5.5060 h1         1 SX3       0.059700
     34 H2           6.4460    -2.4000     4.3830 hc         1 SX3       0.058700
     35 H1           6.9530    -1.4020     6.5970 hc         1 SX3       0.037367
     36 H1A          6.6380    -3.1370     6.7350 hc         1 SX3       0.037367
     37 H1B          5.3930    -1.9720     7.2060 hc         1 SX3       0.037367
@<TRIPOS>BOND
     1     1     2 1
     2     2     4 ar
     3     2     3 ar
     4     3     8 ar
     5     3    19 1
     6     4     5 ar
     7     4    20 1
     8     5     6 ar
     9     5    21 1
    10     8     6 ar
    11     6     7 1
    12     7    22 1
    13     7    23 1
    14     8     9 1
    15     9    11 1
    16     9    10 2
    17    12    11 1
    18    11    16 1
    19    13    12 1
    20    12    24 1
    21    12    25 1
    22    14    13 1
    23    13    15 1
    24    13    26 1
    25    14    27 1
    26    14    28 1
    27    14    29 1
    28    15    17 1
    29    15    30 1
    30    15    31 1
    31    17    16 1
    32    16    32 1
    33    16    33 1
    34    17    18 1
    35    17    34 1
    36    18    35 1
    37    18    36 1
    38    18    37 1
@<TRIPOS>SUBSTRUCTURE
     1 SX3         1 TEMP              0 ****  ****    0 ROOT
