@<TRIPOS>MOLECULE
SX4
   41    43     1     0     0
SMALL
bcc


@<TRIPOS>ATOM
      1 Cl1          0.0000     0.0000     0.0000 cl         1 SX4      -0.000400
      2 C18          1.7350     0.0000     0.0000 ca         1 SX4      -0.039600
      3 C17          2.4280     0.0000     1.1980 ca         1 SX4      -0.097000
      4 C16          3.8100     0.0000     1.1970 ca         1 SX4      -0.096000
      5 C15          4.5010     0.0020    -0.0010 ca         1 SX4      -0.100000
      6 C14          3.8100     0.0010    -1.1970 ca         1 SX4      -0.096000
      7 C13          2.4280    -0.0060    -1.1980 ca         1 SX4      -0.079300
      8 C12          1.6750    -0.0120    -2.5030 c3         1 SX4      -0.003100
      9 C11          1.2630     1.4180    -2.8610 c3         1 SX4       0.036700
     10 C10          2.5180     2.2780    -3.1180 c3         1 SX4      -0.040400
     11 C9           2.0880     3.1750    -4.3080 c3         1 SX4      -0.033400
     12 C8           1.1900     2.2060    -5.1190 c3         1 SX4       0.037000
     13 N2           0.4710     1.4150    -4.1000 n          1 SX4      -0.151800
     14 C7          -0.7110     0.7920    -4.2790 c          1 SX4       0.643700
     15 O1          -1.2540     0.2390    -3.3430 o          1 SX4      -0.663100
     16 C6          -1.3450     0.7820    -5.6100 ca         1 SX4      -0.246600
     17 C1          -2.7330     0.9480    -5.7320 ca         1 SX4       0.115600
     18 N1          -3.5180     1.1220    -4.5980 nv         1 SX4      -0.414200
     19 C5          -0.5670     0.6150    -6.7580 ca         1 SX4      -0.016000
     20 C4          -1.1660     0.6070    -8.0000 ca         1 SX4      -0.040900
     21 Br1         -0.1100     0.3800    -9.5520 br         1 SX4      -0.139100
     22 C3          -2.5380     0.7640    -8.1160 ca         1 SX4      -0.007000
     23 C2          -3.3190     0.9370    -6.9910 ca         1 SX4      -0.202000
     24 H17          1.8870    -0.0010     2.1360 ha         1 SX4       0.114000
     25 H16          4.3520     0.0000     2.1350 ha         1 SX4       0.105000
     26 H15          5.5840     0.0040    -0.0010 ha         1 SX4       0.104000
     27 H14          4.3520    -0.0000    -2.1350 ha         1 SX4       0.109000
     28 H12          2.3090    -0.4110    -3.2850 hc         1 SX4       0.043700
     29 H12A         0.7900    -0.6290    -2.4060 hc         1 SX4       0.043700
     30 H11          0.6810     1.8520    -2.0560 h1         1 SX4       0.044700
     31 H10          3.3580     1.6530    -3.3960 hc         1 SX4       0.030200
     32 H10A         2.7510     2.8820    -2.2500 hc         1 SX4       0.030200
     33 H9           1.5190     4.0290    -3.9610 hc         1 SX4       0.025700
     34 H9A          2.9480     3.4820    -4.8900 hc         1 SX4       0.025700
     35 H8           1.8000     1.5580    -5.7370 h1         1 SX4       0.026200
     36 H8A          0.4870     2.7650    -5.7260 h1         1 SX4       0.026200
     37 HN1         -3.0890     1.3550    -3.7250 hn         1 SX4       0.279800
     38 HN1A        -4.5150     1.0720    -4.6680 hn         1 SX4       0.279800
     39 H5           0.4950     0.4210    -6.6680 ha         1 SX4       0.120000
     40 H3          -2.9990     0.7560    -9.0960 ha         1 SX4       0.111000
     41 H2          -4.3910     1.0610    -7.0910 ha         1 SX4       0.115000
@<TRIPOS>BOND
     1     1     2 1   
     2     2     3 ar  
     3     2     7 ar  
     4     3     4 ar  
     5     3    24 1   
     6     4     5 ar  
     7     4    25 1   
     8     5     6 ar  
     9     5    26 1   
    10     6     7 ar  
    11     6    27 1   
    12     7     8 1   
    13     8     9 1   
    14     8    28 1   
    15     8    29 1   
    16     9    10 1   
    17     9    13 1   
    18     9    30 1   
    19    10    11 1   
    20    10    31 1   
    21    10    32 1   
    22    11    12 1   
    23    11    33 1   
    24    11    34 1   
    25    12    13 1   
    26    12    35 1   
    27    12    36 1   
    28    13    14 1   
    29    14    15 2   
    30    14    16 1   
    31    16    17 ar  
    32    16    19 ar  
    33    17    18 1   
    34    17    23 ar  
    35    18    37 1   
    36    18    38 1   
    37    19    20 ar  
    38    19    39 1   
    39    20    21 1   
    40    20    22 ar  
    41    22    23 ar  
    42    22    40 1   
    43    23    41 1   
@<TRIPOS>SUBSTRUCTURE
     1 SX4         1 TEMP              0 ****  ****    0 ROOT
