@<TRIPOS>MOLECULE
molecule
   47    48     1     0     0
SMALL
bcc


@<TRIPOS>ATOM
      1 O3           0.0000     0.0000     0.0000 o          1 SX5      -0.852800
      2 C18          1.2090     0.0000     0.0000 c          1 SX5       0.889600
      3 O4           1.8790     0.0000     1.1620 o          1 SX5      -0.852800
      4 C17          1.9610    -0.0070    -1.3060 c3         1 SX5      -0.171400
      5 C16          0.9670    -0.0130    -2.4680 c3         1 SX5      -0.133400
      6 C15          1.7200    -0.0200    -3.7740 c          1 SX5       0.648100
      7 O2           2.9330    -0.0200    -3.7740 o          1 SX5      -0.605100
      8 N2           1.0470    -0.0260    -4.9410 ns         1 SX5      -0.481100
      9 C14          1.7370     0.0930    -6.1440 ca         1 SX5       0.136600
     10 C13          2.9800     0.7110    -6.1780 ca         1 SX5      -0.148000
     11 C12          3.6630     0.8260    -7.3720 ca         1 SX5      -0.072000
     12 C11          3.1160     0.3300    -8.5440 ca         1 SX5      -0.061900
     13 Br1          4.0660     0.4980   -10.1710 br         1 SX5      -0.122100
     14 C10          1.8830    -0.2880    -8.5300 ca         1 SX5      -0.066000
     15 C9           1.1830    -0.4170    -7.3280 ca         1 SX5      -0.199600
     16 C8          -0.1370    -1.0770    -7.3060 c          1 SX5       0.686700
     17 O1          -1.1270    -0.4440    -6.9930 o          1 SX5      -0.617100
     18 N1          -0.2450    -2.3800    -7.6320 n          1 SX5      -0.481800
     19 C6           0.9250    -3.1320    -8.1040 c3         1 SX5       0.106000
     20 C4           1.0870    -4.3860    -7.2400 c3         1 SX5      -0.092700
     21 C5           2.2170    -5.2520    -7.8020 c3         1 SX5      -0.087600
     22 C3          -0.2200    -5.1820    -7.2540 c3         1 SX5      -0.073400
     23 C7          -1.5330    -3.0770    -7.5140 c3         1 SX5       0.106000
     24 C2          -1.3440    -4.3300    -6.6610 c3         1 SX5      -0.092700
     25 C1          -2.6440    -5.1380    -6.6450 c3         1 SX5      -0.087600
     26 H17          2.5850     0.8770    -1.3680 hc         1 SX5       0.045200
     27 H17A         2.5840    -0.8920    -1.3590 hc         1 SX5       0.045200
     28 H16          0.3450     0.8730    -2.4150 hc         1 SX5       0.073200
     29 H16A         0.3440    -0.8960    -2.4060 hc         1 SX5       0.073200
     30 HN2          0.0470    -0.0780    -4.9410 hn         1 SX5       0.347500
     31 H13          3.4140     1.1020    -5.2660 ha         1 SX5       0.192000
     32 H12          4.6320     1.3100    -7.3920 ha         1 SX5       0.143000
     33 H10          1.4600    -0.6770    -9.4480 ha         1 SX5       0.141000
     34 H6           0.7770    -3.4210    -9.1380 h1         1 SX5       0.057700
     35 H6A          1.8120    -2.5150    -8.0170 h1         1 SX5       0.057700
     36 H4           1.3200    -4.0950    -6.2230 hc         1 SX5       0.070700
     37 H5           2.0330    -5.4500    -8.8510 hc         1 SX5       0.034867
     38 H5A          3.1600    -4.7290    -7.6940 hc         1 SX5       0.034867
     39 H5B          2.2590    -6.1880    -7.2600 hc         1 SX5       0.034867
     40 H3          -0.4700    -5.4470    -8.2750 hc         1 SX5       0.041200
     41 H3A         -0.1000    -6.0820    -6.6620 hc         1 SX5       0.041200
     42 H7          -2.2550    -2.4230    -7.0410 h1         1 SX5       0.057700
     43 H7A         -1.8820    -3.3590    -8.5000 h1         1 SX5       0.057700
     44 H2          -1.0810    -4.0410    -5.6510 hc         1 SX5       0.070700
     45 H1          -3.4360    -4.5390    -6.2130 hc         1 SX5       0.034867
     46 H1A         -2.9110    -5.4120    -7.6590 hc         1 SX5       0.034867
     47 H1B         -2.5040    -6.0340    -6.0530 hc         1 SX5       0.034867
@<TRIPOS>BOND
     1     1     2 1
     2     2     3 1
     3     2     4 1
     4     5     4 1
     5     4    26 1
     6     4    27 1
     7     6     5 1
     8     5    28 1
     9     5    29 1
    10     7     6 2
    11     8     6 1
    12     9     8 1
    13     8    30 1
    14    10     9 ar
    15    15     9 ar
    16    11    10 ar
    17    10    31 1
    18    12    11 ar
    19    11    32 1
    20    13    12 1
    21    12    14 ar
    22    14    15 ar
    23    14    33 1
    24    15    16 1
    25    16    18 1
    26    16    17 2
    27    19    18 1
    28    18    23 1
    29    20    19 1
    30    19    34 1
    31    19    35 1
    32    21    20 1
    33    20    22 1
    34    20    36 1
    35    21    37 1
    36    21    38 1
    37    21    39 1
    38    22    24 1
    39    22    40 1
    40    22    41 1
    41    24    23 1
    42    23    42 1
    43    23    43 1
    44    24    25 1
    45    24    44 1
    46    25    45 1
    47    25    46 1
    48    25    47 1
@<TRIPOS>SUBSTRUCTURE
     1 SX5         1 TEMP              0 ****  ****    0 ROOT
