@<TRIPOS>MOLECULE
SX6
   60    62     1     0     0
SMALL
bcc


@<TRIPOS>ATOM
      1 O3           0.0000     0.0000     0.0000 o          1 SX6      -0.657100
      2 C18          1.2130     0.0000     0.0000 c          1 SX6       0.589100
      3 N3           1.8880     0.0000     1.1660 n          1 SX6      -0.154800
      4 C22          3.3590     0.0070     1.1910 c3         1 SX6       0.005500
      5 C21          3.8320    -1.1160     2.1200 c3         1 SX6       0.198400
      6 O4           3.1760    -0.9900     3.3840 os         1 SX6      -0.404600
      7 C20          1.7550    -1.1300     3.3210 c3         1 SX6       0.198400
      8 C19          1.1750    -0.0010     2.4540 c3         1 SX6       0.005500
      9 C17          1.9650    -0.0050    -1.3060 c3         1 SX6      -0.087400
     10 C16          0.9700    -0.0100    -2.4680 c3         1 SX6      -0.084400
     11 C15          1.7230    -0.0140    -3.7740 c          1 SX6       0.563100
     12 O2           2.9350    -0.0130    -3.7750 o          1 SX6      -0.644100
     13 N2           1.0480    -0.0190    -4.9410 ns         1 SX6      -0.013100
     14 C14          1.7390     0.0960    -6.1460 ca         1 SX6      -0.028400
     15 C13          2.9830     0.7120    -6.1800 ca         1 SX6      -0.129000
     16 C12          3.6660     0.8250    -7.3740 ca         1 SX6      -0.042000
     17 C11          3.1170     0.3260    -8.5450 ca         1 SX6       0.004100
     18 Br1          4.0670     0.4890   -10.1730 br         1 SX6      -0.128100
     19 C10          1.8830    -0.2890    -8.5290 ca         1 SX6      -0.044000
     20 C9           1.1830    -0.4150    -7.3270 ca         1 SX6      -0.185600
     21 C8          -0.1350    -1.0770    -7.3020 c          1 SX6       0.610700
     22 O1          -0.3340    -2.0080    -6.5460 o          1 SX6      -0.650100
     23 N1          -1.1190    -0.6490    -8.1180 n          1 SX6      -0.142800
     24 C6          -0.9330     0.5440    -8.9550 c3         1 SX6       0.038500
     25 C4          -2.0860     1.5170    -8.6910 c3         1 SX6      -0.068200
     26 C5          -1.9820     2.7040    -9.6530 c3         1 SX6       0.011400
     27 C3          -3.4170     0.7960    -8.9140 c3         1 SX6      -0.026400
     28 C7          -2.3980    -1.3700    -8.1890 c3         1 SX6       0.038500
     29 C2          -3.5360    -0.3710    -7.9310 c3         1 SX6      -0.068200
     30 C1          -4.8820    -1.0710    -8.1300 c3         1 SX6       0.011400
     31 H22          3.7120     0.9610     1.5650 h1         1 SX6       0.038950
     32 H22A         3.7400    -0.1630     0.1910 h1         1 SX6       0.038950
     33 H21          4.9040    -1.0400     2.2600 h1         1 SX6       0.015700
     34 H21A         3.5870    -2.0750     1.6800 h1         1 SX6       0.015700
     35 H20          1.3420    -1.0650     4.3200 h1         1 SX6       0.015700
     36 H20A         1.5050    -2.0880     2.8810 h1         1 SX6       0.015700
     37 H19          1.3180     0.9500     2.9500 h1         1 SX6       0.038950
     38 H19A         0.1190    -0.1770     2.2860 h1         1 SX6       0.038950
     39 H17          2.5890    -0.8890    -1.3600 hc         1 SX6       0.044700
     40 H17A         2.5870     0.8800    -1.3670 hc         1 SX6       0.044700
     41 H16          0.3480    -0.8950    -2.4070 hc         1 SX6       0.047700
     42 H16A         0.3470     0.8740    -2.4140 hc         1 SX6       0.047700
     43 HN2          0.0490    -0.0730    -4.9410 hn         1 SX6       0.183500
     44 H13          3.4170     1.1040    -5.2690 ha         1 SX6       0.162000
     45 H12          4.6360     1.3070    -7.3950 ha         1 SX6       0.118000
     46 H10          1.4600    -0.6790    -9.4470 ha         1 SX6       0.121000
     47 H6           0.0080     1.0190    -8.7040 h1         1 SX6       0.037450
     48 H6A         -0.9330     0.2560   -10.0000 h1         1 SX6       0.037450
     49 H4          -2.0330     1.8690    -7.6680 hc         1 SX6       0.032700
     50 H5          -1.0970     3.2830    -9.4170 hc         1 SX6       0.005533
     51 H5A         -1.9140     2.3390   -10.6700 hc         1 SX6       0.005533
     52 H5B         -2.8600     3.3290    -9.5510 hc         1 SX6       0.005533
     53 H3          -3.4570     0.4170    -9.9280 hc         1 SX6       0.022700
     54 H3A         -4.2340     1.4890    -8.7500 hc         1 SX6       0.022700
     55 H7          -2.5140    -1.8060    -9.1740 h1         1 SX6       0.037450
     56 H7A         -2.4190    -2.1480    -7.4360 h1         1 SX6       0.037450
     57 H2          -3.4640     0.0030    -6.9170 hc         1 SX6       0.032700
     58 H1          -5.6850    -0.3640    -7.9620 hc         1 SX6       0.005533
     59 H1A         -4.9440    -1.4530    -9.1420 hc         1 SX6       0.005533
     60 H1B         -4.9700    -1.8910    -7.4290 hc         1 SX6       0.005533
@<TRIPOS>BOND
     1     1     2 2   
     2     2     3 1   
     3     2     9 1   
     4     3     4 1   
     5     3     8 1   
     6     4     5 1   
     7     4    31 1   
     8     4    32 1   
     9     5     6 1   
    10     5    33 1   
    11     5    34 1   
    12     6     7 1   
    13     7     8 1   
    14     7    35 1   
    15     7    36 1   
    16     8    37 1   
    17     8    38 1   
    18     9    10 1   
    19     9    39 1   
    20     9    40 1   
    21    10    11 1   
    22    10    41 1   
    23    10    42 1   
    24    11    12 2   
    25    11    13 1   
    26    13    14 1   
    27    13    43 1   
    28    14    15 ar  
    29    14    20 ar  
    30    15    16 ar  
    31    15    44 1   
    32    16    17 ar  
    33    16    45 1   
    34    17    18 1   
    35    17    19 ar  
    36    19    20 ar  
    37    19    46 1   
    38    20    21 1   
    39    21    22 2   
    40    21    23 1   
    41    23    24 1   
    42    23    28 1   
    43    24    25 1   
    44    24    47 1   
    45    24    48 1   
    46    25    26 1   
    47    25    27 1   
    48    25    49 1   
    49    26    50 1   
    50    26    51 1   
    51    26    52 1   
    52    27    29 1   
    53    27    53 1   
    54    27    54 1   
    55    28    29 1   
    56    28    55 1   
    57    28    56 1   
    58    29    30 1   
    59    29    57 1   
    60    30    58 1   
    61    30    59 1   
    62    30    60 1   
@<TRIPOS>SUBSTRUCTURE
     1 SX6         1 TEMP              0 ****  ****    0 ROOT
