@<TRIPOS>MOLECULE
SX7
   50    53     1     0     0
SMALL
bcc


@<TRIPOS>ATOM
      1 O1           0.0000     0.0000     0.0000 o          1 SX7      -0.638100
      2 C7           8.0490     4.3070    -5.0300 cc         1 SX7      -0.263100
      3 C6           7.3180     3.2430    -5.4470 cd         1 SX7      -0.055400
      4 C1          10.2900     0.9430    -6.0150 c3         1 SX7      -0.013100
      5 N1           8.5800     2.0990    -7.3280 na         1 SX7       0.490400
      6 C5           7.4310     2.5470    -6.7460 cd         1 SX7      -0.150100
      7 C4           6.3960     2.2290    -7.5970 cc         1 SX7      -0.329300
      8 C3           6.9410     1.5790    -8.7050 cc         1 SX7       0.392200
      9 C19          1.2160     0.0000     0.0000 c          1 SX7       0.615700
     10 N6           1.8900     0.0000     1.1670 n          1 SX7      -0.164800
     11 C21          1.1610    -0.1020     2.4340 c3         1 SX7       0.083800
     12 C20          3.3510     0.1030     1.1690 c3         1 SX7       0.083800
     13 C17          1.9530     0.0010    -1.2780 ca         1 SX7      -0.156600
     14 C16          1.6520    -0.9500    -2.2660 ca         1 SX7       0.087600
     15 N5           0.6600    -1.8940    -2.0430 nv         1 SX7      -0.552200
     16 C15          2.3520    -0.9440    -3.4680 ca         1 SX7      -0.121000
     17 C14          3.3360    -0.0070    -3.6920 ca         1 SX7      -0.081000
     18 C18          2.9490     0.9510    -1.5110 ca         1 SX7      -0.087000
     19 C13          3.6420     0.9420    -2.7150 cp         1 SX7      -0.031000
     20 C10          4.7040     1.9470    -2.9660 cp         1 SX7      -0.175300
     21 C9           5.0180     2.9020    -1.9950 ca         1 SX7       0.416200
     22 N4           5.9560     3.8010    -2.1980 nb         1 SX7      -0.571000
     23 C11          5.4030     1.9510    -4.1720 ca         1 SX7      -0.011000
     24 C12          6.3910     2.9160    -4.3520 ca         1 SX7      -0.193100
     25 C8           6.6500     3.8470    -3.3280 ca         1 SX7       0.224800
     26 N3           7.6580     4.6710    -3.7730 na         1 SX7       0.274900
     27 N2           8.2370     1.4960    -8.5440 nd         1 SX7      -0.653800
     28 H7           8.8240     4.7960    -5.6080 h4         1 SX7       0.147000
     29 H1          11.0330     0.3880    -6.5740 hc         1 SX7       0.014033
     30 H1A         10.6840     1.1920    -5.0370 hc         1 SX7       0.014033
     31 H1B          9.3980     0.3390    -5.9020 hc         1 SX7       0.014033
     32 H4           5.3470     2.4470    -7.4370 ha         1 SX7       0.138000
     33 H3           6.3840     1.2020    -9.5530 h4         1 SX7       0.002100
     34 H2           9.9690     3.0670    -6.0980 h1         1 SX7       0.034700
     35 H2A         10.6390     2.3730    -7.5820 h1         1 SX7       0.034700
     36 H21          0.7660    -1.1050     2.5440 h1         1 SX7       0.011533
     37 H21A         0.3450     0.6100     2.4400 h1         1 SX7       0.011533
     38 H21B         1.8340     0.1130     3.2560 h1         1 SX7       0.011533
     39 H20          3.7390    -0.2870     2.1030 h1         1 SX7       0.011533
     40 H20A         3.7550    -0.4710     0.3430 h1         1 SX7       0.011533
     41 H20B         3.6400     1.1410     1.0630 h1         1 SX7       0.011533
     42 HN5          0.8880    -2.7660    -1.6060 hn         1 SX7       0.280300
     43 HN5A        -0.2730    -1.7240    -2.3620 hn         1 SX7       0.280300
     44 H15          2.1200    -1.6780    -4.2310 ha         1 SX7       0.112000
     45 H14          3.8780    -0.0090    -4.6300 ha         1 SX7       0.112000
     46 H18          3.1860     1.6880    -0.7530 ha         1 SX7       0.120000
     47 H9           4.4770     2.9020    -1.0560 h4         1 SX7      -0.014900
     48 H11          5.3680     1.0840    -4.8210 ha         1 SX7       0.123000
     49 HN3          8.0490     5.4300    -3.2500 hn         1 SX7       0.120700
     50 C2           9.9310     2.2220    -6.7750 c3         1 SX7      -0.018700
@<TRIPOS>BOND
     1     1     9 2   
     2     2     3 2   
     3     2    26 1   
     4     2    28 1   
     5     3     6 1   
     6     3    24 1   
     7     4    29 1   
     8     4    30 1   
     9     4    31 1   
    10     4    50 1   
    11     5     6 1   
    12     5    27 1   
    13     5    50 1   
    14     6     7 2   
    15     7     8 1   
    16     7    32 1   
    17     8    27 2   
    18     8    33 1   
    19     9    10 1   
    20     9    13 1   
    21    10    11 1   
    22    10    12 1   
    23    11    36 1   
    24    11    37 1   
    25    11    38 1   
    26    12    39 1   
    27    12    40 1   
    28    12    41 1   
    29    13    14 ar  
    30    13    18 ar  
    31    14    15 1   
    32    14    16 ar  
    33    15    42 1   
    34    15    43 1   
    35    16    17 ar  
    36    16    44 1   
    37    17    19 ar  
    38    17    45 1   
    39    18    19 ar  
    40    18    46 1   
    41    19    20 1   
    42    20    21 ar  
    43    20    23 ar  
    44    21    22 ar  
    45    21    47 1   
    46    22    25 ar  
    47    23    24 ar  
    48    23    48 1   
    49    24    25 ar  
    50    25    26 1   
    51    26    49 1   
    52    34    50 1   
    53    35    50 1   
@<TRIPOS>SUBSTRUCTURE
     1 SX7         1 TEMP              0 ****  ****    0 ROOT
