@<TRIPOS>MOLECULE
molecule
   50    53     1     0     0
SMALL
bcc


@<TRIPOS>ATOM
      1 O1           0.0000     0.0000     0.0000 o          1 SX7      -0.593100
      2 C7           8.0490     4.3070    -5.0300 cc         1 SX7      -0.079100
      3 C6           7.3180     3.2430    -5.4470 cd         1 SX7      -0.081400
      4 C1          10.2900     0.9430    -6.0150 c3         1 SX7      -0.114100
      5 N1           8.5800     2.0990    -7.3280 na         1 SX7       0.067400
      6 C5           7.4310     2.5470    -6.7460 cd         1 SX7      -0.008100
      7 C4           6.3960     2.2290    -7.5970 cc         1 SX7      -0.338300
      8 C3           6.9410     1.5790    -8.7050 cc         1 SX7       0.330200
      9 C19          1.2160     0.0000     0.0000 c          1 SX7       0.682700
     10 N6           1.8900     0.0000     1.1670 n          1 SX7      -0.498800
     11 C21          1.1610    -0.1020     2.4340 c3         1 SX7       0.099300
     12 C20          3.3510     0.1030     1.1690 c3         1 SX7       0.099300
     13 C17          1.9530     0.0010    -1.2780 ca         1 SX7      -0.153600
     14 C16          1.6520    -0.9500    -2.2660 ca         1 SX7       0.216600
     15 N5           0.6600    -1.8940    -2.0430 nv         1 SX7      -0.983200
     16 C15          2.3520    -0.9440    -3.4680 ca         1 SX7      -0.151000
     17 C14          3.3360    -0.0070    -3.6920 ca         1 SX7      -0.102000
     18 C18          2.9490     0.9510    -1.5110 ca         1 SX7      -0.101000
     19 C13          3.6420     0.9420    -2.7150 cp         1 SX7      -0.042000
     20 C10          4.7040     1.9470    -2.9660 cp         1 SX7      -0.186300
     21 C9           5.0180     2.9020    -1.9950 ca         1 SX7       0.456200
     22 N4           5.9560     3.8010    -2.1980 nb         1 SX7      -0.709000
     23 C11          5.4030     1.9510    -4.1720 ca         1 SX7      -0.037000
     24 C12          6.3910     2.9160    -4.3520 ca         1 SX7      -0.196100
     25 C8           6.6500     3.8470    -3.3280 ca         1 SX7       0.464800
     26 N3           7.6580     4.6710    -3.7730 na         1 SX7      -0.273100
     27 N2           8.2370     1.4960    -8.5440 nd         1 SX7      -0.512800
     28 H7           8.8240     4.7960    -5.6080 h4         1 SX7       0.176000
     29 H1          11.0330     0.3880    -6.5740 hc         1 SX7       0.048700
     30 H1A         10.6840     1.1920    -5.0370 hc         1 SX7       0.048700
     31 H1B          9.3980     0.3390    -5.9020 hc         1 SX7       0.048700
     32 H4           5.3470     2.4470    -7.4370 ha         1 SX7       0.158000
     33 H3           6.3840     1.2020    -9.5530 h4         1 SX7       0.047100
     34 H2           9.9690     3.0670    -6.0980 h1         1 SX7       0.061200
     35 H2A         10.6390     2.3730    -7.5820 h1         1 SX7       0.061200
     36 H21          0.7660    -1.1050     2.5440 h1         1 SX7       0.041367
     37 H21A         0.3450     0.6100     2.4400 h1         1 SX7       0.041367
     38 H21B         1.8340     0.1130     3.2560 h1         1 SX7       0.041367
     39 H20          3.7390    -0.2870     2.1030 h1         1 SX7       0.041367
     40 H20A         3.7550    -0.4710     0.3430 h1         1 SX7       0.041367
     41 H20B         3.6400     1.1410     1.0630 h1         1 SX7       0.041367
     42 HN5          0.8880    -2.7660    -1.6060 hn         1 SX7       0.436300
     43 HN5A        -0.2730    -1.7240    -2.3620 hn         1 SX7       0.436300
     44 H15          2.1200    -1.6780    -4.2310 ha         1 SX7       0.142000
     45 H14          3.8780    -0.0090    -4.6300 ha         1 SX7       0.136000
     46 H18          3.1860     1.6880    -0.7530 ha         1 SX7       0.138000
     47 H9           4.4770     2.9020    -1.0560 h4         1 SX7       0.028100
     48 H11          5.3680     1.0840    -4.8210 ha         1 SX7       0.150000
     49 HN3          8.0490     5.4300    -3.2500 hn         1 SX7       0.308700
     50 C2           9.9310     2.2220    -6.7750 c3         1 SX7       0.072300
@<TRIPOS>BOND
     1     1     9 2
     2     2     3 2
     3     2    26 1
     4     3     6 1
     5     3    24 1
     6     4    50 1
     7     5     6 1
     8     5    50 1
     9     5    27 1
    10     6     7 2
    11     7     8 1
    12     8    27 2
    13     9    10 1
    14     9    13 1
    15    10    11 1
    16    10    12 1
    17    13    14 ar
    18    13    18 ar
    19    14    15 1
    20    14    16 ar
    21    16    17 ar
    22    17    19 ar
    23    18    19 ar
    24    19    20 1
    25    20    21 ar
    26    20    23 ar
    27    21    22 ar
    28    22    25 ar
    29    23    24 ar
    30    24    25 ar
    31    25    26 1
    32     2    28 1
    33     4    29 1
    34     4    30 1
    35     4    31 1
    36     7    32 1
    37     8    33 1
    38    50    34 1
    39    50    35 1
    40    11    36 1
    41    11    37 1
    42    11    38 1
    43    12    39 1
    44    12    40 1
    45    12    41 1
    46    15    42 1
    47    15    43 1
    48    16    44 1
    49    17    45 1
    50    18    46 1
    51    21    47 1
    52    23    48 1
    53    26    49 1
@<TRIPOS>SUBSTRUCTURE
     1 SX7         1 TEMP              0 ****  ****    0 ROOT
