@<TRIPOS>MOLECULE
molecule
   39    43     1     0     0
SMALL
bcc


@<TRIPOS>ATOM
      1 C7           0.0000     0.0000     0.0000 cc         1 SX8      -0.027000
      2 C6           1.3580     0.0000     0.0000 cd         1 SX8      -0.266300
      3 N1           5.8300    -0.0090     1.1350 na         1 SX8       0.070400
      4 C5           2.0680     0.0000     1.2220 cd         1 SX8       0.499800
      5 C4           4.3470    -0.0030    -0.4860 cd         1 SX8       0.365200
      6 C3           3.6750    -0.0040     0.7530 cd         1 SX8      -0.350800
      7 C2           4.6220    -0.0060     1.7350 cc         1 SX8      -0.085300
      8 N2           5.6320    -0.0050    -0.2500 nc         1 SX8      -0.500800
      9 N7           1.4310    -0.0000     2.3710 nc         1 SX8      -0.471800
     10 N6           0.0360     0.0000     2.4060 na         1 SX8       0.102300
     11 C8          -0.6860     0.0060     1.2300 cc         1 SX8      -0.132300
     12 C9          -0.8840    -0.0010     3.4080 cc         1 SX8       0.354700
     13 N4          -2.0750     0.0000     2.8470 nd         1 SX8      -0.358700
     14 N3          -1.9640     0.0040     1.5650 nd         1 SX8      -0.060000
     15 S1          -0.5450    -0.0010     5.1360 ss         1 SX8      -0.097100
     16 C10         -2.1470     0.1530     5.8550 ca         1 SX8      -0.023100
     17 C18         -2.8290    -0.9790     6.2520 ca         1 SX8      -0.028000
     18 C17         -4.1030    -0.8510     6.8220 ca         1 SX8      -0.175300
     19 C13         -4.6740     0.4370     6.9850 ca         1 SX8       0.445600
     20 C12         -3.9500     1.5690     6.5690 ca         1 SX8      -0.174300
     21 C11         -2.7140     1.4220     6.0230 ca         1 SX8      -0.070000
     22 C16         -4.8340    -1.9790     7.2420 ca         1 SX8      -0.065000
     23 C15         -6.0690    -1.7800     7.7890 ca         1 SX8      -0.264300
     24 C14         -6.5720    -0.4870     7.9200 ca         1 SX8       0.446200
     25 N5          -5.8890     0.5610     7.5280 nb         1 SX8      -0.686000
     26 H7          -0.5490     0.0000    -0.9340 ha         1 SX8       0.165000
     27 H6           1.8980     0.0000    -0.9390 ha         1 SX8       0.152000
     28 H1           7.2030     0.8620     2.4510 h1         1 SX8       0.060367
     29 H1A          7.9220     0.0060     1.0810 h1         1 SX8       0.060367
     30 H1B          7.2150    -0.9060     2.4220 h1         1 SX8       0.060367
     31 H4           3.8790     0.0020    -1.4630 h4         1 SX8       0.054100
     32 H2           4.4390    -0.1100     2.7970 h4         1 SX8       0.189000
     33 H18         -2.3300    -1.9400     6.2500 ha         1 SX8       0.146000
     34 H12         -4.3730     2.5590     6.6920 ha         1 SX8       0.154000
     35 H11         -2.1590     2.2990     5.7140 ha         1 SX8       0.146000
     36 H16         -4.4280    -2.9780     7.1330 ha         1 SX8       0.142000
     37 H15         -6.6570    -2.6270     8.1220 ha         1 SX8       0.139000
     38 H14         -7.5530    -0.3440     8.3560 h4         1 SX8       0.024100
     39 C1           7.1270    -0.0120     1.8170 c3         1 SX8       0.060600
@<TRIPOS>BOND
     1    11     1 1
     2     1     2 2
     3     1    26 1
     4     4     2 1
     5     2    27 1
     6     3    39 1
     7    39    28 1
     8    39    29 1
     9    39    30 1
    10     8     3 1
    11     7     3 1
    12     9     4 2
    13     4     6 1
    14     5     6 1
    15     5     8 2
    16     5    31 1
    17     6     7 2
    18     7    32 1
    19    10     9 1
    20    12    10 1
    21    10    11 1
    22    14    11 2
    23    15    12 1
    24    13    12 2
    25    13    14 1
    26    15    16 1
    27    16    21 ar
    28    16    17 ar
    29    17    18 ar
    30    17    33 1
    31    18    19 ar
    32    18    22 ar
    33    20    19 ar
    34    19    25 ar
    35    21    20 ar
    36    20    34 1
    37    21    35 1
    38    22    23 ar
    39    22    36 1
    40    23    24 ar
    41    23    37 1
    42    25    24 ar
    43    24    38 1
@<TRIPOS>SUBSTRUCTURE
     1 SX8         1 TEMP              0 ****  ****    0 ROOT
