@<TRIPOS>MOLECULE
SX8
   39    39     1     0     0
SMALL
bcc


@<TRIPOS>ATOM
      1 C7          0.2820   -0.9020   -1.4800 c3        1 SX8     -0.174000
      2 C6          1.6370   -0.3640   -1.4450 c1        1 SX8      0.003000
      3 N1          4.6570    1.8920    1.6810 n2        1 SX8     -0.139000
      4 C5          2.1350    0.1650   -0.1690 c2        1 SX8     -0.071000
      5 C4          6.3530   -1.8840    2.7330 c1        1 SX8      0.098000
      6 C3          3.4860    0.6860   -0.2290 c2        1 SX8     -0.201000
      7 C2          4.1280    1.2200    0.8030 c1        1 SX8      0.076000
      8 N2          6.5010   -3.0510    2.6910 n2        1 SX8     -0.373000
      9 N7          1.4510    0.1840    0.9820 n2        1 SX8      0.003000
     10 N6          0.2150   -0.3020    0.9550 na        1 SX8     -0.105000
     11 C8         -0.4470   -0.8730   -0.1880 c2        1 SX8     -0.119000
     12 C9         -0.7250   -0.4490    2.0150 c2        1 SX8     -0.258000
     13 N4         -1.8350   -1.0480    1.4880 n2        1 SX8     -0.064000
     14 N3         -1.6770   -1.2910    0.2000 n2        1 SX8     -0.052000
     15 S1         -0.4180    0.0360    3.6030 ss        1 SX8      0.524000
     16 C10        -1.9640    0.2970    4.2960 c2        1 SX8     -0.551000
     17 C18        -2.7980   -0.7330    4.8530 c2        1 SX8     -0.068000
     18 C17        -3.6630   -0.5260    5.8620 c2        1 SX8     -0.133000
     19 C13        -4.7010    1.2120   10.0080 c1        1 SX8     -0.159000
     20 C12        -4.5020    2.1350   10.9070 c2        1 SX8     -0.133000
     21 C11        -2.1160    1.6180    4.2290 c1        1 SX8      0.280000
     22 C16        -4.5020   -1.5740    6.3940 c2        1 SX8     -0.135000
     23 C15        -5.2900   -1.4410    7.4770 c2        1 SX8     -0.096000
     24 C14        -5.5120   -0.2340    8.1870 c1        1 SX8     -0.069000
     25 N5         -5.0510    0.4430    9.1030 n2        1 SX8      0.034000
     26 H7          0.3390   -1.9640   -1.8700 hc        1 SX8      0.186000
     27 H6         -0.2970   -0.3220   -2.2630 hc        1 SX8      0.186000
     28 H1          5.8040    0.4040    2.7300 h1        1 SX8      0.109333
     29 H1A         6.4680    2.1120    2.6440 h1        1 SX8      0.109333
     30 H1B         5.0270    1.7480    3.7070 h1        1 SX8      0.109333
     31 H4          6.6200   -4.0110    2.6560 hn        1 SX8      0.279000
     32 H2          3.9740    0.6310   -1.2170 ha        1 SX8      0.190000
     33 H18        -2.6890   -1.7300    4.3870 ha        1 SX8      0.146000
     34 H12        -3.6440    2.0850   11.5920 ha        1 SX8      0.134500
     35 H11        -5.1760    2.9960   11.0180 ha        1 SX8      0.134500
     36 H16        -3.7680    0.4710    6.3240 ha        1 SX8      0.127000
     37 H15        -4.4910   -2.5360    5.8520 ha        1 SX8      0.136000
     38 H14        -5.9300   -2.2760    7.8210 ha        1 SX8      0.157000
     39 C1          5.5320    1.4970    2.7350 c3        1 SX8     -0.123000
@<TRIPOS>BOND
     1    1    2 1   
     2    1   11 1   
     3    1   26 1   
     4    1   27 1   
     5    2    4 1   
     6    3    7 1   
     7    3   39 1   
     8    4    6 1   
     9    4    9 1   
    10    5    8 1   
    11    6    7 1   
    12    6   32 1   
    13    8   31 1   
    14    9   10 1   
    15   10   11 1   
    16   10   12 1   
    17   11   14 1   
    18   12   13 1   
    19   12   15 1   
    20   13   14 1   
    21   15   16 1   
    22   16   17 1   
    23   16   21 1   
    24   17   18 1   
    25   17   33 1   
    26   18   22 1   
    27   18   36 1   
    28   19   20 1   
    29   19   25 1   
    30   20   34 1   
    31   20   35 1   
    32   22   23 1   
    33   22   37 1   
    34   23   24 1   
    35   23   38 1   
    36   24   25 1   
    37   28   39 1   
    38   29   39 1   
    39   30   39 1   
@<TRIPOS>SUBSTRUCTURE
     1 SX8         1 TEMP              0 ****  ****    0 ROOT
