@<TRIPOS>MOLECULE
molecule
   48    47     1     0     0
SMALL
bcc


@<TRIPOS>ATOM
      1 P24          0.0000     0.0000     0.0000 p5         1 SXA       1.180900
      2 O26          1.6100     0.0000     0.0000 o          1 SXA      -0.909833
      3 O23         -0.4930     0.0000     1.3940 o          1 SXA      -0.909833
      4 O27         -0.5370     1.3140    -0.7590 os         1 SXA      -0.586200
      5 C28         -0.3180     2.6390    -0.2710 c3         1 SXA       0.229400
      6 C29         -0.9570     3.6470    -1.2280 c3         1 SXA      -0.068000
      7 C30         -0.3250     3.5060    -2.6140 c3         1 SXA      -0.068100
      8 C31         -2.4600     3.3800    -1.3220 c3         1 SXA      -0.068100
      9 C32         -0.7240     5.0660    -0.7040 c3         1 SXA       0.088100
     10 O33          0.6740     5.3630    -0.7370 oh         1 SXA      -0.550800
     11 C34         -1.2250     5.1670     0.7130 c          1 SXA       0.642100
     12 O35         -0.4370     5.2430     1.6320 o          1 SXA      -0.582100
     13 N36         -2.5500     5.1730     0.9600 ns         1 SXA      -0.602900
     14 C37         -3.0400     5.3830     2.3240 c3         1 SXA       0.129000
     15 C38         -4.5690     5.3440     2.3300 c3         1 SXA      -0.174400
     16 C39         -5.0730     5.5610     3.7330 c          1 SXA       0.664100
     17 O40         -4.2860     5.7310     4.6410 o          1 SXA      -0.593100
     18 N41         -6.3990     5.5670     3.9800 ns         1 SXA      -0.599900
     19 C42         -6.8880     5.7780     5.3450 c3         1 SXA       0.127000
     20 C43         -8.4170     5.7380     5.3490 c3         1 SXA      -0.010300
     21 S1          -9.0230     5.9980     7.0350 ss         1 SXA      -0.250700
     22 C1         -10.7100     5.9090     6.7630 c          1 SXA       0.562700
     23 O1         -11.1340     5.7140     5.6430 o          1 SXA      -0.540100
     24 C2         -11.6690     6.0730     7.9130 c3         1 SXA      -0.176100
     25 H28         -0.7650     2.7400     0.7110 h1         1 SXA       0.030700
     26 H28A         0.7460     2.8280    -0.2040 h1         1 SXA       0.030700
     27 H30         -0.6200     2.5590    -3.0510 hc         1 SXA       0.028867
     28 H30A        -0.6620     4.3170    -3.2490 hc         1 SXA       0.028867
     29 H30B         0.7540     3.5420    -2.5250 hc         1 SXA       0.028867
     30 H31         -2.9670     4.2790    -1.6530 hc         1 SXA       0.028867
     31 H31A        -2.6410     2.5820    -2.0320 hc         1 SXA       0.028867
     32 H31B        -2.8370     3.0900    -0.3490 hc         1 SXA       0.028867
     33 H32         -1.2580     5.7730    -1.3270 h1         1 SXA       0.006700
     34 HO33         0.7960     6.2910    -0.8470 ho         1 SXA       0.373000
     35 HN36        -3.2000     5.0940     0.2030 hn         1 SXA       0.308500
     36 H37         -2.6560     4.6030     2.9700 h1         1 SXA       0.068200
     37 H37A        -2.7030     6.3480     2.6840 h1         1 SXA       0.068200
     38 H38         -4.9530     6.1240     1.6830 hc         1 SXA       0.063200
     39 H38A        -4.9070     4.3790     1.9700 hc         1 SXA       0.063200
     40 HN41        -7.0460     5.3870     3.2380 hn         1 SXA       0.312500
     41 H42         -6.5500     6.7430     5.7040 h1         1 SXA       0.062700
     42 H42A        -6.5040     4.9980     5.9910 h1         1 SXA       0.062700
     43 H43         -8.7540     4.7740     4.9890 h1         1 SXA       0.079200
     44 H43A        -8.8010     6.5190     4.7030 h1         1 SXA       0.079200
     45 H2         -12.5840     5.5330     7.7010 hc         1 SXA       0.064700
     46 H2A        -11.2190     5.6800     8.8170 hc         1 SXA       0.064700
     47 H2B        -11.8930     7.1240     8.0490 hc         1 SXA       0.064700
     48 O8          -0.5360    -1.3190    -0.7510 o          1 SXA      -0.909833
@<TRIPOS>BOND
     1     1     2 1
     2     1     3 1
     3     1     4 1
     4     4     5 1
     5     5     6 1
     6     5    25 1
     7     5    26 1
     8     6     7 1
     9     6     8 1
    10     6     9 1
    11     7    27 1
    12     7    28 1
    13     7    29 1
    14     8    30 1
    15     8    31 1
    16     8    32 1
    17     9    10 1
    18     9    11 1
    19     9    33 1
    20    10    34 1
    21    11    12 2
    22    11    13 1
    23    13    14 1
    24    13    35 1
    25    14    15 1
    26    14    36 1
    27    14    37 1
    28    15    16 1
    29    15    38 1
    30    15    39 1
    31    16    17 2
    32    16    18 1
    33    18    19 1
    34    18    40 1
    35    19    20 1
    36    19    41 1
    37    19    42 1
    38    20    21 1
    39    20    43 1
    40    20    44 1
    41    21    22 1
    42    22    23 2
    43    22    24 1
    44    24    45 1
    45    24    46 1
    46    24    47 1
    47     1    48 1
@<TRIPOS>SUBSTRUCTURE
     1 SXA         1 TEMP              0 ****  ****    0 ROOT
