@<TRIPOS>MOLECULE
SXA
   48    46     1     0     0
SMALL
bcc


@<TRIPOS>ATOM
      1 P24        -1.1010   -0.8530   -1.0620 p3        1 SXA      2.430000
      2 O26        -0.5820   -1.2560    0.2590 o         1 SXA     -1.140667
      3 O23        -2.5340   -0.5000   -1.2130 o         1 SXA     -1.140667
      4 O27        -1.2620    1.4800   -0.7850 oh        1 SXA     -0.399000
      5 C28        -0.9280    2.6640   -0.0880 c3        1 SXA      0.006000
      6 C29        -1.4440    3.9370   -0.7900 c3        1 SXA      0.003000
      7 C30        -0.9220    3.9220   -2.2280 c3        1 SXA     -0.205500
      8 C31        -2.9700    3.9120   -0.8480 c3        1 SXA     -0.205500
      9 C32        -0.9200    5.1420   -0.0850 c2        1 SXA     -0.310000
     10 O33         0.2600    5.6520   -0.6290 oh        1 SXA     -0.259000
     11 C34        -1.3300    5.7800    1.0710 c2        1 SXA      0.193000
     12 O35        -0.8850    6.8600    1.5520 o         1 SXA     -0.479000
     13 N36        -2.5270    5.2190    1.8240 n4        1 SXA     -0.078000
     14 C37        -2.4790    5.5130    3.2890 c3        1 SXA      0.004000
     15 C38        -3.6830    5.0480    4.0000 c2        1 SXA     -0.567000
     16 C39        -4.9330    5.4740    3.5970 c2        1 SXA      0.252000
     17 O40        -5.2610    6.1090    2.5550 o         1 SXA     -0.484000
     18 N41        -6.1040    5.1180    4.4760 n4        1 SXA     -0.101000
     19 C42        -6.1180    5.9100    5.7810 c3        1 SXA      0.038000
     20 C43        -7.1570    5.4310    6.6630 c2        1 SXA     -0.860000
     21 S1         -8.6630    5.9750    6.6710 ss        1 SXA      0.342000
     22 C1         -9.5110    5.3170    5.3470 c2        1 SXA     -0.027000
     23 O1         -9.0660    4.6510    4.3890 o         1 SXA     -0.394000
     24 C2        -10.9700    5.6770    5.3760 c3        1 SXA     -0.253000
     25 H28        -2.2290    1.4440   -0.9040 ho        1 SXA      0.255000
     26 H28A       -1.3310    2.6100    0.9590 h1        1 SXA      0.075000
     27 H30         0.1940    2.6790   -0.0560 h1        1 SXA      0.075000
     28 H30A       -1.3050    4.8100   -2.7820 hc        1 SXA      0.072667
     29 H30B        0.1940    3.9530   -2.2290 hc        1 SXA      0.072667
     30 H31        -1.2540    2.9860   -2.7400 hc        1 SXA      0.072667
     31 H31A       -3.3100    3.3780   -1.7700 hc        1 SXA      0.072667
     32 H31B       -3.4090    3.3600    0.0190 hc        1 SXA      0.072667
     33 H32        -3.3840    4.9470   -0.8740 hc        1 SXA      0.072667
     34 HO33        0.0950    6.5950   -0.7770 ho        1 SXA      0.176000
     35 HN36       -3.3870    5.6340    1.4480 hn        1 SXA      0.226500
     36 H37        -2.5730    4.2100    1.6830 hn        1 SXA      0.226500
     37 H37A       -1.5560    5.0200    3.7000 hx        1 SXA      0.109500
     38 H38        -2.3530    6.6310    3.3770 hx        1 SXA      0.109500
     39 H38A       -3.5290    4.4200    4.8790 ha        1 SXA      0.128000
     40 HN41       -6.9820    5.2930    3.9740 hn        1 SXA      0.222500
     41 H42        -6.0780    4.1270    4.7070 hn        1 SXA      0.222500
     42 H42A       -6.2530    6.9820    5.4660 hx        1 SXA      0.087000
     43 H43        -5.0890    5.7840    6.2210 hx        1 SXA      0.087000
     44 H43A       -6.8810    4.6050    7.3220 h4        1 SXA      0.108000
     45 H2        -11.2650    6.1720    4.4190 hc        1 SXA      0.078000
     46 H2A       -11.1940    6.3670    6.2250 hc        1 SXA      0.078000
     47 H2B       -11.5810    4.7500    5.4940 hc        1 SXA      0.078000
     48 O8         -0.2690   -1.0360   -2.2660 o         1 SXA     -1.140667
@<TRIPOS>BOND
     1    1    2 1   
     2    1    3 1   
     3    1   48 1   
     4    4    5 1   
     5    4   25 1   
     6    5    6 1   
     7    5   26 1   
     8    5   27 1   
     9    6    7 1   
    10    6    8 1   
    11    6    9 1   
    12    7   28 1   
    13    7   29 1   
    14    7   30 1   
    15    8   31 1   
    16    8   32 1   
    17    8   33 1   
    18    9   10 1   
    19    9   11 1   
    20   10   34 1   
    21   11   12 1   
    22   11   13 1   
    23   13   14 1   
    24   13   35 1   
    25   13   36 1   
    26   14   15 1   
    27   14   37 1   
    28   14   38 1   
    29   15   16 1   
    30   15   39 1   
    31   16   17 1   
    32   16   18 1   
    33   18   19 1   
    34   18   40 1   
    35   18   41 1   
    36   19   20 1   
    37   19   42 1   
    38   19   43 1   
    39   20   21 1   
    40   20   44 1   
    41   21   22 1   
    42   22   23 1   
    43   22   24 1   
    44   24   45 1   
    45   24   46 1   
    46   24   47 1   
@<TRIPOS>SUBSTRUCTURE
     1 SXA         1 TEMP              0 ****  ****    0 ROOT
