@<TRIPOS>MOLECULE
SXD
   59    58     1     0     0
SMALL
bcc


@<TRIPOS>ATOM
      1 O25         7.2140   -0.6680   -2.8590 o         1 SXD     -0.920833
      2 P24         7.0230    0.8140   -2.6510 p5        1 SXD      1.338900
      3 O26         7.5810    1.4810   -1.4420 o         1 SXD     -0.920833
      4 O23         7.2140    1.4660   -4.0130 o         1 SXD     -0.920833
      5 O27         5.3220    0.9890   -2.4660 os        1 SXD     -0.559200
      6 C28         4.5760    0.3980   -3.4530 c3        1 SXD      0.232400
      7 C29         3.6440    1.4060   -4.1900 c3        1 SXD     -0.109000
      8 C30         2.2930    1.3890   -3.4740 c3        1 SXD     -0.080600
      9 C31         4.1870    2.8210   -4.1330 c3        1 SXD     -0.080600
     10 C32         3.3820    0.9970   -5.6520 c3        1 SXD      0.093100
     11 O33         3.1290   -0.3910   -5.7950 oh        1 SXD     -0.614800
     12 C34         4.4450    1.4170   -6.6910 c         1 SXD      0.622100
     13 O35         4.0540    1.9150   -7.7780 o         1 SXD     -0.693100
     14 N36         5.7570    1.1270   -6.4420 n         1 SXD     -0.547900
     15 C37         6.7780    1.4430   -7.4070 c3        1 SXD      0.115000
     16 C38         8.1940    1.2870   -6.8550 c3        1 SXD     -0.175400
     17 C39         8.5820   -0.1700   -6.6700 c         1 SXD      0.661100
     18 O40         9.3930   -0.7090   -7.4820 o         1 SXD     -0.772100
     19 N41         8.0010   -0.8580   -5.6470 n         1 SXD     -0.518900
     20 C42         8.3660   -2.2060   -5.3110 c3        1 SXD      0.109000
     21 C43         9.3610   -2.3050   -4.1560 c3        1 SXD     -0.029300
     22 S1         10.2430   -3.8450   -4.1510 ss        1 SXD     -0.370200
     23 C1         11.6860   -3.5080   -5.1220 c3        1 SXD      0.005700
     24 C2         11.3590   -3.0850   -6.5280 c3        1 SXD     -0.205400
     25 C3         12.5590   -2.8420   -7.3890 c         1 SXD      0.591100
     26 O3         13.6940   -3.2580   -7.1280 o         1 SXD     -0.559100
     27 C4         12.3020   -2.0020   -8.6160 c3        1 SXD     -0.307400
     28 C5         11.6620   -2.7790   -9.7340 c         1 SXD      0.593100
     29 O5         12.2950   -3.0650  -10.7590 o         1 SXD     -0.570100
     30 C6         10.2230   -3.1410   -9.5620 c3        1 SXD     -0.221100
     31 H28         5.2480   -0.1350   -4.1850 h1        1 SXD     -0.005800
     32 H28A        3.9010   -0.3900   -2.9960 h1        1 SXD     -0.005800
     33 H30         1.7870    0.4060   -3.6310 hc        1 SXD      0.031367
     34 H30A        1.6280    2.1980   -3.8620 hc        1 SXD      0.031367
     35 H30B        2.4550    1.5460   -2.3810 hc        1 SXD      0.031367
     36 H31         4.2170    3.1550   -3.0670 hc        1 SXD      0.031367
     37 H31A        3.5330    3.5120   -4.7180 hc        1 SXD      0.031367
     38 H31B        5.2320    2.8770   -4.5240 hc        1 SXD      0.031367
     39 H32         2.4180    1.4780   -5.9970 h1        1 SXD      0.064700
     40 HO33        3.8970   -0.8660   -5.4530 ho        1 SXD      0.418000
     41 HN36        6.0750    1.0970   -5.4670 hn        1 SXD      0.402500
     42 H37         6.6570    2.5070   -7.7680 h1        1 SXD      0.022200
     43 H37A        6.6420    0.7750   -8.3050 h1        1 SXD      0.022200
     44 H38         8.2780    1.8180   -5.8570 hc        1 SXD      0.096700
     45 H38A        8.9090    1.7430   -7.5850 hc        1 SXD      0.096700
     46 HN41        7.5750   -0.3310   -4.8660 hn        1 SXD      0.412500
     47 H42         7.4170   -2.7280   -4.9920 h1        1 SXD      0.042200
     48 H42A        8.7690   -2.7310   -6.2230 h1        1 SXD      0.042200
     49 H43         8.7820   -2.2270   -3.1890 h1        1 SXD      0.121200
     50 H43A       10.0910   -1.4610   -4.1670 h1        1 SXD      0.121200
     51 H1         12.3020   -2.7170   -4.6280 h1        1 SXD      0.063700
     52 H1A        12.2780   -4.4550   -5.1210 h1        1 SXD      0.063700
     53 H2         10.7380   -2.1380   -6.5070 hc        1 SXD      0.104200
     54 H2A        10.7320   -3.8710   -7.0320 hc        1 SXD      0.104200
     55 H4         11.6080   -1.1560   -8.3350 hc        1 SXD      0.104200
     56 H4A        13.2740   -1.5690   -8.9750 hc        1 SXD      0.104200
     57 H6          9.6920   -3.0800  -10.5430 hc        1 SXD      0.079033
     58 H6A         9.7210   -2.4570   -8.8270 hc        1 SXD      0.079033
     59 H6B        10.1490   -4.1920   -9.1870 hc        1 SXD      0.079033
@<TRIPOS>BOND
     1    1    2 1   
     2    2    3 1   
     3    2    4 1   
     4    2    5 1   
     5    5    6 1   
     6    6    7 1   
     7    6   31 1   
     8    6   32 1   
     9    7    8 1   
    10    7    9 1   
    11    7   10 1   
    12    8   33 1   
    13    8   34 1   
    14    8   35 1   
    15    9   36 1   
    16    9   37 1   
    17    9   38 1   
    18   10   11 1   
    19   10   12 1   
    20   10   39 1   
    21   11   40 1   
    22   12   13 2   
    23   12   14 1   
    24   14   15 1   
    25   14   41 1   
    26   15   16 1   
    27   15   42 1   
    28   15   43 1   
    29   16   17 1   
    30   16   44 1   
    31   16   45 1   
    32   17   18 2   
    33   17   19 1   
    34   19   20 1   
    35   19   46 1   
    36   20   21 1   
    37   20   47 1   
    38   20   48 1   
    39   21   22 1   
    40   21   49 1   
    41   21   50 1   
    42   22   23 1   
    43   23   24 1   
    44   23   51 1   
    45   23   52 1   
    46   24   25 1   
    47   24   53 1   
    48   24   54 1   
    49   25   26 2   
    50   25   27 1   
    51   27   28 1   
    52   27   55 1   
    53   27   56 1   
    54   28   29 2   
    55   28   30 1   
    56   30   57 1   
    57   30   58 1   
    58   30   59 1   
@<TRIPOS>SUBSTRUCTURE
     1 SXD         1 TEMP              0 ****  ****    0 ROOT
