@<TRIPOS>MOLECULE
molecule
   59    58     1     0     0
SMALL
bcc


@<TRIPOS>ATOM
      1 O25          0.0000     0.0000     0.0000 o          1 SXD      -0.909833
      2 P24          1.6100     0.0000     0.0000 p5         1 SXD       1.179900
      3 O26          2.1470     0.0000     1.5180 o          1 SXD      -0.909833
      4 O23          2.1040    -1.2080    -0.6980 o          1 SXD      -0.909833
      5 O27          2.1470     1.3150    -0.7600 os         1 SXD      -0.585200
      6 C28          1.9280     1.5530    -2.1510 c3         1 SXD       0.229400
      7 C29          2.5660     2.8860    -2.5470 c3         1 SXD      -0.068000
      8 C30          1.9350     4.0160    -1.7310 c3         1 SXD      -0.067600
      9 C31          4.0700     2.8340    -2.2680 c3         1 SXD      -0.067600
     10 C32          2.3330     3.1410    -4.0370 c3         1 SXD       0.088100
     11 O33          0.9350     3.3180    -4.2770 oh         1 SXD      -0.551800
     12 C34          2.8330     1.9640    -4.8330 c          1 SXD       0.642100
     13 O35          2.0450     1.2070    -5.3580 o          1 SXD      -0.582100
     14 N36          4.1590     1.7520    -4.9620 ns         1 SXD      -0.603900
     15 C37          4.6470     0.6770    -5.8270 c3         1 SXD       0.130000
     16 C38          6.1780     0.6520    -5.7950 c3         1 SXD      -0.175400
     17 C39          6.6800    -0.4550    -6.6850 c          1 SXD       0.664100
     18 O40          5.8940    -1.1560    -7.2850 o          1 SXD      -0.592100
     19 N41          8.0050    -0.6670    -6.8140 ns         1 SXD      -0.600900
     20 C42          8.4940    -1.7430    -7.6790 c3         1 SXD       0.129000
     21 C43         10.0240    -1.7670    -7.6470 c3         1 SXD       0.000700
     22 S1          10.6300    -3.1000    -8.7190 ss         1 SXD      -0.353200
     23 C1          12.4320    -2.9700    -8.5520 c3         1 SXD       0.023700
     24 C2          13.1020    -4.0450    -9.4100 c3         1 SXD      -0.165400
     25 C3          14.5990    -3.9380    -9.2720 c          1 SXD       0.553100
     26 O3          15.0790    -3.0890    -8.5600 o          1 SXD      -0.476100
     27 C4          15.4950    -4.8890   -10.0210 c3         1 SXD      -0.286400
     28 C5          16.9360    -4.5710    -9.7110 c          1 SXD       0.550100
     29 O5          17.2060    -3.6650    -8.9600 o          1 SXD      -0.474100
     30 C6          18.0380    -5.3830   -10.3400 c3         1 SXD      -0.194100
     31 H28          0.8630     1.5900    -2.3480 h1         1 SXD       0.030700
     32 H28A         2.3740     0.7530    -2.7290 h1         1 SXD       0.030700
     33 H30          0.8560     3.9460    -1.7910 hc         1 SXD       0.028867
     34 H30A         2.2570     4.9720    -2.1270 hc         1 SXD       0.028867
     35 H30B         2.2450     3.9320    -0.6960 hc         1 SXD       0.028867
     36 H31          4.4440     1.8410    -2.4890 hc         1 SXD       0.028867
     37 H31A         4.5780     3.5580    -2.8930 hc         1 SXD       0.028867
     38 H31B         4.2520     3.0650    -1.2260 hc         1 SXD       0.028867
     39 H32          2.8670     4.0350    -4.3380 h1         1 SXD       0.006700
     40 HO33         0.8120     3.8340    -5.0560 ho         1 SXD       0.373000
     41 HN36         4.8090     2.3650    -4.5110 hn         1 SXD       0.309500
     42 H37          4.2640    -0.2730    -5.4740 h1         1 SXD       0.068200
     43 H37A         4.3100     0.8480    -6.8420 h1         1 SXD       0.068200
     44 H38          6.5620     1.6020    -6.1480 hc         1 SXD       0.062200
     45 H38A         6.5160     0.4810    -4.7800 hc         1 SXD       0.062200
     46 HN41         8.6540    -0.0890    -6.3180 hn         1 SXD       0.309500
     47 H42          8.1110    -2.6920    -7.3260 h1         1 SXD       0.064700
     48 H42A         8.1570    -1.5710    -8.6940 h1         1 SXD       0.064700
     49 H43         10.3610    -1.9380    -6.6320 h1         1 SXD       0.061700
     50 H43A        10.4080    -0.8170    -8.0000 h1         1 SXD       0.061700
     51 H1          12.7550    -1.9910    -8.8820 h1         1 SXD       0.071200
     52 H1A         12.7090    -3.1110    -7.5140 h1         1 SXD       0.071200
     53 H2          12.8240    -3.9040   -10.4480 hc         1 SXD       0.074700
     54 H2A         12.7780    -5.0250    -9.0800 hc         1 SXD       0.074700
     55 H4          15.3220    -4.7860   -11.0850 hc         1 SXD       0.083700
     56 H4A         15.2760    -5.9060    -9.7170 hc         1 SXD       0.083700
     57 H6          17.9680    -5.3150   -11.4190 hc         1 SXD       0.058700
     58 H6A         18.9990    -5.0010   -10.0160 hc         1 SXD       0.058700
     59 H6B         17.9420    -6.4190   -10.0370 hc         1 SXD       0.058700
@<TRIPOS>BOND
     1     2     1 1
     2     4     2 1
     3     5     2 1
     4     2     3 1
     5     5     6 1
     6     7     6 1
     7     6    32 1
     8     6    31 1
     9     9     7 1
    10    10     7 1
    11     7     8 1
    12    33     8 1
    13     8    35 1
    14     8    34 1
    15    36     9 1
    16    38     9 1
    17     9    37 1
    18    39    10 1
    19    11    10 1
    20    10    12 1
    21    11    40 1
    22    12    13 2
    23    12    14 1
    24    41    14 1
    25    14    15 1
    26    43    15 1
    27    15    16 1
    28    15    42 1
    29    17    16 1
    30    16    44 1
    31    16    45 1
    32    19    17 1
    33    18    17 2
    34    20    19 1
    35    19    46 1
    36    21    20 1
    37    48    20 1
    38    47    20 1
    39    22    21 1
    40    21    50 1
    41    21    49 1
    42    23    22 1
    43    51    23 1
    44    23    24 1
    45    23    52 1
    46    25    24 1
    47    53    24 1
    48    24    54 1
    49    27    25 1
    50    25    26 2
    51    56    27 1
    52    55    27 1
    53    27    28 1
    54    28    29 2
    55    28    30 1
    56    59    30 1
    57    57    30 1
    58    30    58 1
@<TRIPOS>SUBSTRUCTURE
     1 SXD         1 TEMP              0 ****  ****    0 ROOT
