@<TRIPOS>MOLECULE
SXH
   60    59     1     0     0
SMALL
bcc


@<TRIPOS>ATOM
      1 O25        -2.5050    4.5050   -4.1810 o         1 SXH     -0.910167
      2 P24        -2.0030    3.4660   -3.2130 p5        1 SXH      1.328900
      3 O26        -2.3500    3.8780   -1.7950 o         1 SXH     -0.910167
      4 O23        -2.0870    2.0180   -3.5650 o         1 SXH     -0.910167
      5 O27        -0.3220    3.7890   -3.1190 os        1 SXH     -0.583200
      6 C28         0.4360    2.7480   -2.6350 c3        1 SXH      0.220400
      7 C29         1.4710    3.2020   -1.5750 c3        1 SXH     -0.109000
      8 C30         2.2480    1.9610   -1.1460 c3        1 SXH     -0.078600
      9 C31         2.4250    4.1990   -2.2080 c3        1 SXH     -0.078600
     10 C32         0.8340    3.8060   -0.3040 c3        1 SXH      0.128100
     11 O33        -0.3410    3.1530    0.0940 oh        1 SXH     -0.652800
     12 C34         0.6830    5.3370   -0.4060 c         1 SXH      0.636100
     13 O35         1.6060    6.0660    0.0540 o         1 SXH     -0.730100
     14 N36        -0.4630    5.8570   -0.9300 n         1 SXH     -0.543900
     15 C37        -0.6240    7.2600   -1.1740 c3        1 SXH      0.108000
     16 C38        -0.9870    7.6150   -2.6200 c3        1 SXH     -0.178400
     17 C39        -2.4770    7.8570   -2.7910 c         1 SXH      0.650100
     18 O40        -2.8980    9.0270   -2.9930 o         1 SXH     -0.706100
     19 N41        -3.3200    6.7820   -2.6480 n         1 SXH     -0.512900
     20 C42        -4.6890    6.8570   -3.0820 c3        1 SXH      0.107000
     21 C43        -4.9120    6.3800   -4.5160 c3        1 SXH     -0.080300
     22 S1         -6.5530    5.7650   -4.7440 ss        1 SXH     -0.206700
     23 C1         -7.5050    6.9940   -5.4220 c         1 SXH      0.533700
     24 O1         -7.1840    8.1390   -5.7740 o         1 SXH     -0.566100
     25 C2         -8.9260    6.5050   -5.5790 c3        1 SXH     -0.174400
     26 C3         -9.4180    6.6920   -6.9980 c3        1 SXH     -0.073400
     27 C4        -10.8790    6.3210   -7.1230 c3        1 SXH     -0.077400
     28 C5        -11.3690    6.4910   -8.5460 c3        1 SXH     -0.081400
     29 C6        -12.8260    6.1280   -8.6780 c3        1 SXH     -0.090100
     30 H28        -0.2180    1.9430   -2.1920 h1        1 SXH      0.007200
     31 H28A        1.0390    2.2900   -3.4780 h1        1 SXH      0.007200
     32 H30         3.1020    2.2410   -0.4830 hc        1 SXH      0.023367
     33 H30A        2.6550    1.4290   -2.0390 hc        1 SXH      0.023367
     34 H30B        1.5710    1.2680   -0.5910 hc        1 SXH      0.023367
     35 H31         3.0530    3.6940   -2.9800 hc        1 SXH      0.023367
     36 H31A        3.0920    4.6560   -1.4380 hc        1 SXH      0.023367
     37 H31B        1.8330    5.0080   -2.7050 hc        1 SXH      0.023367
     38 H32         1.5460    3.6430    0.5620 h1        1 SXH      0.043700
     39 HO33       -1.0290    3.2490   -0.6100 ho        1 SXH      0.489000
     40 HN36       -1.1420    5.2180   -1.3560 hn        1 SXH      0.401500
     41 H37         0.3320    7.7970   -0.9050 h1        1 SXH      0.036200
     42 H37A       -1.4340    7.6480   -0.4900 h1        1 SXH      0.036200
     43 H38        -0.4590    8.5630   -2.9000 hc        1 SXH      0.076700
     44 H38A       -0.6640    6.8080   -3.3330 hc        1 SXH      0.076700
     45 HN41       -2.9130    5.8400   -2.7070 hn        1 SXH      0.397500
     46 H42        -5.0580    7.9160   -2.9780 h1        1 SXH      0.045200
     47 H42A       -5.2860    6.1960   -2.3880 h1        1 SXH      0.045200
     48 H43        -4.2280    5.4950   -4.7370 h1        1 SXH      0.141700
     49 H43A       -4.6850    7.1920   -5.2440 h1        1 SXH      0.141700
     50 H2         -9.5720    7.0910   -4.8720 hc        1 SXH      0.061200
     51 H2A        -8.9960    5.4230   -5.2880 hc        1 SXH      0.061200
     52 H3         -8.8060    6.0580   -7.6930 hc        1 SXH      0.052200
     53 H3A        -9.2650    7.7620   -7.3020 hc        1 SXH      0.052200
     54 H4        -11.4920    6.9620   -6.4360 hc        1 SXH      0.035700
     55 H4A       -11.0260    5.2560   -6.8010 hc        1 SXH      0.035700
     56 H5        -10.7570    5.8470   -9.2300 hc        1 SXH      0.039200
     57 H5A       -11.2150    7.5550   -8.8680 hc        1 SXH      0.039200
     58 H6        -13.1660    6.2600   -9.7330 hc        1 SXH      0.026033
     59 H6A       -13.4550    6.7760   -8.0210 hc        1 SXH      0.026033
     60 H6B       -12.9950    5.0640   -8.3830 hc        1 SXH      0.026033
@<TRIPOS>BOND
     1    1    2 1   
     2    2    3 1   
     3    2    4 1   
     4    2    5 1   
     5    5    6 1   
     6    6    7 1   
     7    6   30 1   
     8    6   31 1   
     9    7    8 1   
    10    7    9 1   
    11    7   10 1   
    12    8   32 1   
    13    8   33 1   
    14    8   34 1   
    15    9   35 1   
    16    9   36 1   
    17    9   37 1   
    18   10   11 1   
    19   10   12 1   
    20   10   38 1   
    21   11   39 1   
    22   12   13 2   
    23   12   14 1   
    24   14   15 1   
    25   14   40 1   
    26   15   16 1   
    27   15   41 1   
    28   15   42 1   
    29   16   17 1   
    30   16   43 1   
    31   16   44 1   
    32   17   18 2   
    33   17   19 1   
    34   19   20 1   
    35   19   45 1   
    36   20   21 1   
    37   20   46 1   
    38   20   47 1   
    39   21   22 1   
    40   21   48 1   
    41   21   49 1   
    42   22   23 1   
    43   23   24 2   
    44   23   25 1   
    45   25   26 1   
    46   25   50 1   
    47   25   51 1   
    48   26   27 1   
    49   26   52 1   
    50   26   53 1   
    51   27   28 1   
    52   27   54 1   
    53   27   55 1   
    54   28   29 1   
    55   28   56 1   
    56   28   57 1   
    57   29   58 1   
    58   29   59 1   
    59   29   60 1   
@<TRIPOS>SUBSTRUCTURE
     1 SXH         1 TEMP              0 ****  ****    0 ROOT
