@<TRIPOS>MOLECULE
molecule
   60    59     1     0     0
SMALL
bcc


@<TRIPOS>ATOM
      1 O25          0.0000     0.0000     0.0000 o          1 SXH      -0.909833
      2 P24          1.6100     0.0000     0.0000 p5         1 SXH       1.179900
      3 O26          2.1040     0.0000     1.3950 o          1 SXH      -0.909833
      4 O23          2.1460    -1.3150    -0.7590 o          1 SXH      -0.909833
      5 O27          2.1460     1.3150    -0.7600 os         1 SXH      -0.585200
      6 C28          1.9280     2.6390    -0.2700 c3         1 SXH       0.229400
      7 C29          2.5670     3.6480    -1.2270 c3         1 SXH      -0.071000
      8 C30          4.0700     3.3800    -1.3220 c3         1 SXH      -0.066600
      9 C31          1.9350     3.5060    -2.6130 c3         1 SXH      -0.066600
     10 C32          2.3330     5.0660    -0.7030 c3         1 SXH       0.088100
     11 O33          3.0320     5.2380     0.5310 oh         1 SXH      -0.551800
     12 C34          0.8580     5.2840    -0.4810 c          1 SXH       0.644100
     13 O35          0.4170     5.3390     0.6480 o          1 SXH      -0.581100
     14 N36          0.0300     5.4160    -1.5360 ns         1 SXH      -0.601900
     15 C37         -1.3820     5.7390    -1.3220 c3         1 SXH       0.130000
     16 C38         -2.0950     5.8310    -2.6730 c3         1 SXH      -0.174400
     17 C39         -3.5480     6.1630    -2.4540 c          1 SXH       0.664100
     18 O40         -3.9730     6.3110    -1.3270 o          1 SXH      -0.594100
     19 N41         -4.3760     6.2950    -3.5070 ns         1 SXH      -0.597900
     20 C42         -5.7890     6.6180    -3.2950 c3         1 SXH       0.126000
     21 C43         -6.5010     6.7100    -4.6450 c3         1 SXH      -0.009300
     22 S1          -8.2470     7.1090    -4.3810 ss         1 SXH      -0.251700
     23 C1          -8.7910     7.1510    -6.0030 c          1 SXH       0.562700
     24 O1          -8.0140     6.9350    -6.9100 o          1 SXH      -0.539100
     25 C2         -10.2360     7.4570    -6.3060 c3         1 SXH      -0.163400
     26 C3         -10.4560     7.4320    -7.8200 c3         1 SXH      -0.071400
     27 C4         -11.9220     7.7410    -8.1270 c3         1 SXH      -0.083400
     28 C5         -12.1420     7.7170    -9.6410 c3         1 SXH      -0.082400
     29 C6         -13.6080     8.0270    -9.9480 c3         1 SXH      -0.092100
     30 H28          0.8640     2.8280    -0.2030 h1         1 SXH       0.031200
     31 H28A         2.3750     2.7390     0.7120 h1         1 SXH       0.031200
     32 H30          4.5550     4.2130    -1.8170 hc         1 SXH       0.028533
     33 H30A         4.4790     3.2640    -0.3260 hc         1 SXH       0.028533
     34 H30B         4.2400     2.4740    -1.8900 hc         1 SXH       0.028533
     35 H31          0.8930     3.2290    -2.5090 hc         1 SXH       0.028533
     36 H31A         2.0070     4.4490    -3.1410 hc         1 SXH       0.028533
     37 H31B         2.4580     2.7390    -3.1720 hc         1 SXH       0.028533
     38 H32          2.6990     5.7830    -1.4280 h1         1 SXH       0.006700
     39 HO33         3.3270     6.1310     0.6040 ho         1 SXH       0.372000
     40 HN36         0.3920     5.3490    -2.4670 hn         1 SXH       0.309500
     41 H37         -1.8430     4.9620    -0.7230 h1         1 SXH       0.068700
     42 H37A        -1.4620     6.6880    -0.8060 h1         1 SXH       0.068700
     43 H38         -1.6340     6.6070    -3.2720 hc         1 SXH       0.063200
     44 H38A        -2.0150     4.8810    -3.1890 hc         1 SXH       0.063200
     45 HN41        -4.0250     6.1730    -4.4370 hn         1 SXH       0.311500
     46 H42         -6.2500     5.8410    -2.6960 h1         1 SXH       0.063200
     47 H42A        -5.8690     7.5670    -2.7790 h1         1 SXH       0.063200
     48 H43         -6.4210     5.7610    -5.1610 h1         1 SXH       0.078700
     49 H43A        -6.0400     7.4870    -5.2430 h1         1 SXH       0.078700
     50 H2         -10.4860     8.4380    -5.9210 hc         1 SXH       0.070700
     51 H2A        -10.8680     6.7130    -5.8380 hc         1 SXH       0.070700
     52 H3          -9.8240     8.1770    -8.2890 hc         1 SXH       0.056700
     53 H3A        -10.2050     6.4520    -8.2060 hc         1 SXH       0.056700
     54 H4         -12.1730     8.7220    -7.7420 hc         1 SXH       0.039200
     55 H4A        -12.5540     6.9960    -7.6590 hc         1 SXH       0.039200
     56 H5         -11.5100     8.4610   -10.1100 hc         1 SXH       0.042700
     57 H5A        -11.8920     6.7360   -10.0270 hc         1 SXH       0.042700
     58 H6         -13.8630     9.0010    -9.5490 hc         1 SXH       0.031033
     59 H6A        -14.2400     7.2740    -9.4920 hc         1 SXH       0.031033
     60 H6B        -13.7610     8.0250   -11.0210 hc         1 SXH       0.031033
@<TRIPOS>BOND
     1     2     1 1
     2     3     2 1
     3     2     5 1
     4     2     4 1
     5     5     6 1
     6     6    31 1
     7     6     7 1
     8     6    30 1
     9     9     7 1
    10    10     7 1
    11     7     8 1
    12     8    34 1
    13     8    33 1
    14     8    32 1
    15    37     9 1
    16     9    35 1
    17     9    36 1
    18    11    10 1
    19    10    12 1
    20    10    38 1
    21    39    11 1
    22    13    12 2
    23    12    14 1
    24    14    15 1
    25    14    40 1
    26    41    15 1
    27    42    15 1
    28    15    16 1
    29    16    43 1
    30    16    17 1
    31    16    44 1
    32    19    17 1
    33    17    18 2
    34    45    19 1
    35    19    20 1
    36    21    20 1
    37    20    46 1
    38    20    47 1
    39    22    21 1
    40    21    48 1
    41    21    49 1
    42    23    22 1
    43    25    23 1
    44    23    24 2
    45    26    25 1
    46    50    25 1
    47    51    25 1
    48    52    26 1
    49    26    27 1
    50    26    53 1
    51    28    27 1
    52    55    27 1
    53    27    54 1
    54    29    28 1
    55    28    56 1
    56    28    57 1
    57    60    29 1
    58    59    29 1
    59    58    29 1
@<TRIPOS>SUBSTRUCTURE
     1 SXH         1 TEMP              0 ****  ****    0 ROOT
