@<TRIPOS>MOLECULE
molecule
   45    48     1     0     0
SMALL
bcc


@<TRIPOS>ATOM
      1 O1           0.0000     0.0000     0.0000 o          1 SXI      -0.834800
      2 C7           2.0950     0.0000     1.3060 c3         1 SXI       0.057500
      3 O2           1.9470     0.0020    -1.0460 o          1 SXI      -0.834800
      4 C6           4.2250    -0.5270     2.3360 c3         1 SXI       0.156800
      5 C1           2.5300    -0.1390     7.7590 ca         1 SXI       0.182100
      6 N1           0.5940    -2.3150     7.0650 na         1 SXI      -0.167400
      7 C5           4.3200     0.8790     2.9330 c3         1 SXI      -0.064700
      8 C4           2.9100     1.4140     3.1930 c3         1 SXI      -0.064700
      9 C3           2.1960     0.5040     4.1950 c3         1 SXI      -0.078400
     10 C2           2.9830     0.4650     5.5050 c3         1 SXI       0.138100
     11 C15          2.0570    -0.6020    10.0830 ca         1 SXI       0.099400
     12 C            1.8240    -0.8590     8.7300 ca         1 SXI      -0.172500
     13 C16          0.8400    -1.8860     8.3280 cc         1 SXI       0.478000
     14 N4           0.0350    -2.5550     9.1260 nd         1 SXI      -0.417000
     15 N3          -0.6930    -3.3700     8.4510 nd         1 SXI      -0.025000
     16 N2          -0.4160    -3.2850     7.1960 nc         1 SXI      -0.213800
     17 C14          2.9780     0.3580    10.4530 ca         1 SXI      -0.177000
     18 C13          3.6760     1.0620     9.4890 ca         1 SXI      -0.066000
     19 C12          3.4540     0.8160     8.1460 ca         1 SXI      -0.226000
     20 O            2.3120    -0.3810     6.4410 os         1 SXI      -0.347900
     21 C11          4.3880    -0.0810     5.2400 c3         1 SXI      -0.110400
     22 C10          5.1060     0.8310     4.2430 c3         1 SXI      -0.076400
     23 N            3.4650    -0.4750     1.0800 n7         1 SXI      -0.791200
     24 C9           1.3420     0.0000     0.0000 c          1 SXI       0.891600
     25 C8           2.1300     1.4200     1.8750 c3         1 SXI      -0.049400
     26 H2           1.6000    -0.6560     2.0120 h1         1 SXI       0.010700
     27 H3           5.2220    -0.9020     2.1380 h1         1 SXI       0.013700
     28 H4           3.7200    -1.1820     3.0360 h1         1 SXI       0.013700
     29 H6           4.8290     1.5320     2.2330 hc         1 SXI       0.070700
     30 H7           2.9680     2.4210     3.5890 hc         1 SXI       0.032700
     31 H8           1.2010     0.8890     4.3840 hc         1 SXI       0.065700
     32 H9           2.1290    -0.4980     3.7860 hc         1 SXI       0.065700
     33 H10          3.0580     1.4680     5.9080 h1         1 SXI       0.047700
     34 H11          3.1580     0.5570    11.5020 ha         1 SXI       0.145000
     35 H12          4.3980     1.8130     9.7870 ha         1 SXI       0.136000
     36 H13          4.0030     1.3740     7.3960 ha         1 SXI       0.155000
     37 H14          4.3150    -1.0790     4.8260 hc         1 SXI       0.049700
     38 H15          4.9450    -0.1080     6.1680 hc         1 SXI       0.049700
     39 H16          6.0990     0.4440     4.0520 hc         1 SXI       0.036700
     40 H17          5.1760     1.8310     4.6560 hc         1 SXI       0.036700
     41 H18          3.4390    -1.3870     0.6680 hn         1 SXI       0.362800
     42 H20          2.6200     2.0790     1.1690 hc         1 SXI       0.058700
     43 H21          1.1180     1.7620     2.0560 hc         1 SXI       0.058700
     44 Cl           1.1890    -1.4880    11.2980 cl         1 SXI      -0.056400
     45 H5           1.0360    -2.0080     6.2210 hn         1 SXI       0.361700
@<TRIPOS>BOND
     1    17    18 ar
     2    17    11 ar
     3    18    19 ar
     4    44    11 1
     5    11    12 ar
     6    19     5 ar
     7    21    22 1
     8    21    10 1
     9    12     5 ar
    10    12    13 1
    11     5    20 1
    12    22     7 1
    13     6    13 1
    14     6    16 1
    15    13    14 2
    16    20    10 1
    17    10     9 1
    18     7     4 1
    19     7     8 1
    20     4    23 1
    21    16    15 2
    22    14    15 1
    23     9     8 1
    24     8    25 1
    25    23     2 1
    26    25     2 1
    27     2    24 1
    28    24     3 1
    29    24     1 1
    30     2    26 1
    31     4    27 1
    32     4    28 1
    33     6    45 1
    34     7    29 1
    35     8    30 1
    36     9    31 1
    37     9    32 1
    38    10    33 1
    39    17    34 1
    40    18    35 1
    41    19    36 1
    42    21    37 1
    43    21    38 1
    44    22    39 1
    45    22    40 1
    46    23    41 1
    47    25    42 1
    48    25    43 1
@<TRIPOS>SUBSTRUCTURE
     1 SXI         1 TEMP              0 ****  ****    0 ROOT
