@<TRIPOS>MOLECULE
molecule
   28    29     1     0     0
SMALL
bcc


@<TRIPOS>ATOM
      1 OAA          0.0000     0.0000     0.0000 o          1 SXK      -0.825300
      2 OAB          1.8800     0.0000     1.1630 o          1 SXK      -0.825300
      3 CAE          3.2470    -0.9190    -9.7980 ca         1 SXK      -0.185000
      4 CAF          0.7040    -0.0040    -4.7460 ca         1 SXK      -0.207000
      5 CAG          2.9280    -0.0020    -3.8270 ca         1 SXK      -0.207000
      6 CAH          1.2270    -0.0040    -6.0230 ca         1 SXK      -0.071500
      7 CAI          3.4580    -0.0020    -5.1020 ca         1 SXK      -0.071500
      8 CAJ          2.7220    -0.9250    -8.5210 ca         1 SXK      -0.080000
      9 CAK          4.6840     0.9140    -9.2090 ca         1 SXK      -0.213000
     10 CAL          1.9620    -0.0010    -1.3060 c3         1 SXK       0.016400
     11 OAM          1.0320    -0.0020    -2.3910 os         1 SXK      -0.281900
     12 CAN          1.2090     0.0000     0.0000 c          1 SXK       0.895600
     13 CAO          4.2290    -0.0030   -10.1410 ca         1 SXK       0.136900
     14 CAP          1.5520    -0.0030    -3.6470 ca         1 SXK       0.180100
     15 CAQ          4.1600     0.9200    -7.9300 ca         1 SXK       0.157900
     16 CAR          2.6090    -0.0040    -6.2080 cp         1 SXK      -0.135000
     17 CAS          3.1760    -0.0050    -7.5780 cp         1 SXK      -0.048000
     18 HAE          2.8950    -1.6340   -10.5310 ha         1 SXK       0.141000
     19 HAF         -0.3700    -0.0040    -4.6020 ha         1 SXK       0.148000
     20 HAG          3.5870    -0.0010    -2.9670 ha         1 SXK       0.148000
     21 HAH          0.5650    -0.0040    -6.8800 ha         1 SXK       0.122500
     22 HAI          4.5320    -0.0020    -5.2420 ha         1 SXK       0.122500
     23 HAJ          1.9560    -1.6430    -8.2530 ha         1 SXK       0.149000
     24 HAK          5.4500     1.6300    -9.4830 ha         1 SXK       0.152000
     25 HAL          2.5840     0.8840    -1.3640 h1         1 SXK       0.028200
     26 HALA         2.5840    -0.8850    -1.3630 h1         1 SXK       0.028200
     27 FCC          4.7430    -0.0050   -11.3900 f          1 SXK      -0.146900
     28 FDD          4.6050     1.8150    -7.0200 f          1 SXK      -0.127900
@<TRIPOS>BOND
     1     1    12 1
     2    12     2 1
     3    13     3 ar
     4     8     3 ar
     5     3    18 1
     6    19     4 1
     7     4     6 ar
     8     4    14 ar
     9    14     5 ar
    10     5     7 ar
    11     5    20 1
    12    21     6 1
    13     6    16 ar
    14    16     7 ar
    15     7    22 1
    16    17     8 ar
    17     8    23 1
    18    24     9 1
    19    15     9 ar
    20     9    13 ar
    21    25    10 1
    22    26    10 1
    23    10    11 1
    24    10    12 1
    25    11    14 1
    26    13    27 1
    27    28    15 1
    28    15    17 ar
    29    16    17 1
@<TRIPOS>SUBSTRUCTURE
     1 SXK         1 TEMP              0 ****  ****    0 ROOT
