@<TRIPOS>MOLECULE
SXK
   28    30     1     0     0
SMALL
bcc


@<TRIPOS>ATOM
      1 OAA         1.3590   -0.9800   -2.5300 os        1 SXK     -0.272000
      2 OAB         0.8170   -1.2010   -0.3820 o         1 SXK     -0.322000
      3 CAE         2.7410   -0.0400   -9.9970 c2        1 SXK     -0.002000
      4 CAF         0.9040    0.2390   -4.5810 c3        1 SXK     -0.167500
      5 CAG         3.3170   -0.4350   -3.8650 c3        1 SXK     -0.167500
      6 CAH         1.3980    0.2640   -5.9500 c1        1 SXK     -0.174500
      7 CAI         3.6680   -0.3700   -5.2760 c1        1 SXK     -0.174500
      8 CAJ         2.2990    0.0290   -8.6690 c2        1 SXK     -0.280000
      9 CAK         5.0790    0.1820   -9.3220 c1        1 SXK     -0.198000
     10 CAL         1.6960    0.9700   -1.2890 c3        1 SXK     -0.058000
     11 OAM         2.0020    1.2270   -2.6530 os        1 SXK     -0.295000
     12 CAN         1.2440   -0.4680   -1.2670 c2        1 SXK      0.284000
     13 CAO         4.1090   -0.0440  -10.3010 c2        1 SXK     -0.101000
     14 CAP         1.9100    0.0130   -3.4440 c3        1 SXK      0.140000
     15 CAQ         4.6690    0.1910   -7.8970 c3        1 SXK      0.057000
     16 CAR         2.7430    0.0290   -6.2410 c2        1 SXK     -0.294000
     17 CAS         3.1800    0.1170   -7.6060 c2        1 SXK      0.154000
     18 HAE         1.9960   -0.0930  -10.8070 ha        1 SXK      0.117000
     19 HAF         0.3860    1.2220   -4.3960 hc        1 SXK      0.120000
     20 HAG         3.4590   -1.5020   -3.5320 hc        1 SXK      0.120000
     21 HAH         0.1240   -0.5720   -4.5220 hc        1 SXK      0.120000
     22 HAI         4.0670    0.1980   -3.3130 hc        1 SXK      0.120000
     23 HAJ         1.2180    0.0090   -8.4500 ha        1 SXK      0.163000
     24 HAK         5.0770   -0.7970   -7.4790 h1        1 SXK      0.164000
     25 HAL         2.6170    1.1260   -0.6740 h1        1 SXK      0.112500
     26 HALA        0.8840    1.6740   -0.9770 h1        1 SXK      0.112500
     27 FCC         4.4830   -0.1780  -11.6080 f         1 SXK     -0.137000
     28 FDD         5.2910    1.2240   -7.2070 f         1 SXK     -0.139000
@<TRIPOS>BOND
     1    1   12 1   
     2    1   14 1   
     3    2   12 1   
     4    3    8 1   
     5    3   13 1   
     6    3   18 1   
     7    4    6 1   
     8    4   14 1   
     9    4   19 1   
    10    4   21 1   
    11    5    7 1   
    12    5   14 1   
    13    5   20 1   
    14    5   22 1   
    15    6   16 1   
    16    7   16 1   
    17    8   17 1   
    18    8   23 1   
    19    9   13 1   
    20    9   15 1   
    21   10   11 1   
    22   10   12 1   
    23   10   25 1   
    24   10   26 1   
    25   11   14 1   
    26   13   27 1   
    27   15   17 1   
    28   15   24 1   
    29   15   28 1   
    30   16   17 1   
@<TRIPOS>SUBSTRUCTURE
     1 SXK         1 TEMP              0 ****  ****    0 ROOT
