@<TRIPOS>MOLECULE
molecule
   50    49     1     0     0
SMALL
bcc


@<TRIPOS>ATOM
      1 P24          0.0000     0.0000     0.0000 p5         1 SXM       1.182900
      2 O26          1.6100     0.0000     0.0000 o          1 SXM      -0.911500
      3 O23         -0.5360     0.0000     1.5180 o          1 SXM      -0.911500
      4 O27         -0.5370     1.3140    -0.7600 os         1 SXM      -0.586200
      5 C28         -0.3190     1.5520    -2.1520 c3         1 SXM       0.229400
      6 C29         -0.9580     2.8860    -2.5470 c3         1 SXM      -0.071000
      7 C30         -2.4610     2.8330    -2.2680 c3         1 SXM      -0.067100
      8 C31         -0.3260     4.0150    -1.7310 c3         1 SXM      -0.067100
      9 C32         -0.7240     3.1410    -4.0370 c3         1 SXM       0.086100
     10 O33         -1.4190     2.1560    -4.8040 oh         1 SXM      -0.554800
     11 C34          0.7510     3.0610    -4.3350 c          1 SXM       0.644100
     12 O35          1.1980     2.1080    -4.9360 o          1 SXM      -0.584100
     13 N36          1.5740     4.0500    -3.9340 ns         1 SXM      -0.600900
     14 C37          2.9880     4.0260    -4.3170 c3         1 SXM       0.129000
     15 C38          3.6940     5.2540    -3.7360 c3         1 SXM      -0.177400
     16 C39          5.1480     5.2300    -4.1290 c          1 SXM       0.662100
     17 O40          5.5780     4.3200    -4.8060 o          1 SXM      -0.605100
     18 N41          5.9720     6.2180    -3.7270 ns         1 SXM      -0.592900
     19 C42          7.3850     6.1940    -4.1100 c3         1 SXM       0.124000
     20 C43          8.0910     7.4220    -3.5290 c3         1 SXM       0.001700
     21 S1           9.8380     7.3930    -4.0000 ss         1 SXM      -0.379700
     22 C1          10.3750     8.8330    -3.2450 c          1 SXM       0.588700
     23 O1           9.5930     9.5150    -2.6170 o          1 SXM      -0.467100
     24 C2          11.8180     9.2510    -3.3590 c3         1 SXM      -0.261400
     25 C3          12.0270    10.5420    -2.6110 c          1 SXM       0.890600
     26 O3A         11.0990    11.0680    -2.0420 o          1 SXM      -0.831300
     27 O3B         13.2440    11.1070    -2.5750 o          1 SXM      -0.831300
     28 H28          0.7460     1.5890    -2.3490 h1         1 SXM       0.031700
     29 H28A        -0.7660     0.7520    -2.7290 h1         1 SXM       0.031700
     30 H30         -2.9450     3.6790    -2.7410 hc         1 SXM       0.028033
     31 H30A        -2.6310     2.8710    -1.1990 hc         1 SXM       0.028033
     32 H30B        -2.8700     1.9130    -2.6670 hc         1 SXM       0.028033
     33 H31         -0.4100     4.9470    -2.2770 hc         1 SXM       0.028033
     34 H31A         0.7190     3.7930    -1.5550 hc         1 SXM       0.028033
     35 H31B        -0.8410     4.1060    -0.7820 hc         1 SXM       0.028033
     36 H32         -1.0920     4.1260    -4.2960 h1         1 SXM       0.005700
     37 HO33        -1.7180     2.5400    -5.6120 ho         1 SXM       0.370000
     38 HN36         1.2090     4.8280    -3.4220 hn         1 SXM       0.308500
     39 H37          3.0700     4.0400    -5.3970 h1         1 SXM       0.068200
     40 H37A         3.4520     3.1270    -3.9300 h1         1 SXM       0.068200
     41 H38          3.6110     5.2410    -2.6560 hc         1 SXM       0.060700
     42 H38A         3.2300     6.1540    -4.1230 hc         1 SXM       0.060700
     43 HN41         5.6140     6.9750    -3.1790 hn         1 SXM       0.311500
     44 H42          7.4670     6.2070    -5.1900 h1         1 SXM       0.058700
     45 H42A         7.8490     5.2950    -3.7230 h1         1 SXM       0.058700
     46 H43          8.0080     7.4090    -2.4490 h1         1 SXM       0.072700
     47 H43A         7.6270     8.3220    -3.9160 h1         1 SXM       0.072700
     48 H2          12.0710     9.3930    -4.4030 hc         1 SXM       0.060700
     49 H2A         12.4510     8.4810    -2.9350 hc         1 SXM       0.060700
     50 O10         -0.4930    -1.2080    -0.7010 o          1 SXM      -0.911500
@<TRIPOS>BOND
     1     1     4 1
     2     1     3 1
     3     2     1 1
     4     5     4 1
     5     5    28 1
     6     5     6 1
     7     6     8 1
     8     7     6 1
     9     7    30 1
    10     7    31 1
    11     8    34 1
    12     8    35 1
    13     8    33 1
    14     9     6 1
    15     9    11 1
    16     9    36 1
    17    10     9 1
    18    11    12 2
    19    13    11 1
    20    14    13 1
    21    14    40 1
    22    14    39 1
    23    15    14 1
    24    16    15 1
    25    16    17 2
    26    18    16 1
    27    19    18 1
    28    19    44 1
    29    20    19 1
    30    20    46 1
    31    21    20 1
    32    21    22 1
    33    22    23 2
    34    24    22 1
    35    24    25 1
    36    24    48 1
    37    25    27 1
    38    26    25 1
    39    29     5 1
    40    32     7 1
    41    37    10 1
    42    38    13 1
    43    41    15 1
    44    42    15 1
    45    43    18 1
    46    45    19 1
    47    47    20 1
    48    49    24 1
    49     1    50 1
@<TRIPOS>SUBSTRUCTURE
     1 SXM         1 TEMP              0 ****  ****    0 ROOT
