@<TRIPOS>MOLECULE
molecule
   66    65     1     0     0
SMALL
bcc


@<TRIPOS>ATOM
      1 O25          0.0000     0.0000     0.0000 o          1 SXO      -0.910500
      2 P24          1.6100     0.0000     0.0000 p5         1 SXO       1.181900
      3 O26          2.1460     0.0000     1.5170 o          1 SXO      -0.910500
      4 O23          2.1030    -1.2080    -0.6980 o          1 SXO      -0.910500
      5 O27          2.1460     1.3140    -0.7600 os         1 SXO      -0.585200
      6 C28          1.9270     1.5530    -2.1510 c3         1 SXO       0.230400
      7 C29          2.5670     2.8860    -2.5470 c3         1 SXO      -0.075000
      8 C30          1.9360     4.0160    -1.7300 c3         1 SXO      -0.067100
      9 C31          4.0710     2.8340    -2.2680 c3         1 SXO      -0.067100
     10 C32          2.3330     3.1420    -4.0370 c3         1 SXO       0.088100
     11 O33          0.9350     3.3140    -4.2770 oh         1 SXO      -0.550800
     12 C34          2.8370     1.9650    -4.8340 c          1 SXO       0.647100
     13 O35          2.0510     1.1900    -5.3330 o          1 SXO      -0.575100
     14 N36          4.1620     1.7770    -4.9900 ns         1 SXO      -0.605900
     15 C37          4.6510     0.6980    -5.8530 c3         1 SXO       0.130000
     16 C38          6.1810     0.7020    -5.8570 c3         1 SXO      -0.174400
     17 C39          6.6840    -0.4060    -6.7450 c          1 SXO       0.664100
     18 O40          5.8960    -1.1290    -7.3170 o          1 SXO      -0.592100
     19 N41          8.0090    -0.5950    -6.9010 ns         1 SXO      -0.598900
     20 C42          8.4980    -1.6750    -7.7640 c3         1 SXO       0.127000
     21 C43         10.0280    -1.6700    -7.7680 c3         1 SXO      -0.009300
     22 S1          10.6330    -3.0020    -8.8350 ss         1 SXO      -0.251700
     23 C1          12.3210    -2.7780    -8.6640 c          1 SXO       0.562700
     24 O1          12.7460    -1.8880    -7.9550 o          1 SXO      -0.539100
     25 C2          13.2800    -3.6840    -9.3900 c3         1 SXO      -0.163400
     26 C3          14.7170    -3.2710    -9.0680 c3         1 SXO      -0.071400
     27 C4          15.6900    -4.1920    -9.8070 c3         1 SXO      -0.083400
     28 C5          17.1280    -3.7790    -9.4850 c3         1 SXO      -0.080400
     29 C6          18.1010    -4.7000   -10.2250 c3         1 SXO      -0.081400
     30 C7          19.5380    -4.2880    -9.9020 c3         1 SXO      -0.084400
     31 C8          20.5120    -5.2080   -10.6400 c3         1 SXO      -0.092100
     32 H28          2.3730     0.7520    -2.7290 h1         1 SXO       0.031200
     33 H28A         0.8630     1.5900    -2.3480 h1         1 SXO       0.031200
     34 H30          2.2130     4.9710    -2.1610 hc         1 SXO       0.028200
     35 H30A         2.2900     3.9640    -0.7080 hc         1 SXO       0.028200
     36 H30B         0.8580     3.9130    -1.7440 hc         1 SXO       0.028200
     37 H31          4.5840     3.5280    -2.9220 hc         1 SXO       0.028200
     38 H31A         4.4370     1.8300    -2.4480 hc         1 SXO       0.028200
     39 H31B         4.2560     3.1060    -1.2360 hc         1 SXO       0.028200
     40 H32          2.8640     4.0360    -4.3380 h1         1 SXO       0.006700
     41 HO33         0.8050     4.0290    -4.8770 ho         1 SXO       0.372000
     42 HN36         4.8120     2.3890    -4.5380 hn         1 SXO       0.308500
     43 H37          4.2930    -0.2530    -5.4790 h1         1 SXO       0.068700
     44 H37A         4.2870     0.8500    -6.8620 h1         1 SXO       0.068700
     45 H38          6.5390     1.6540    -6.2300 hc         1 SXO       0.062200
     46 H38A         6.5460     0.5500    -4.8480 hc         1 SXO       0.062200
     47 HN41         8.6590     0.0130    -6.4430 hn         1 SXO       0.312500
     48 H42          8.1340    -1.5240    -8.7730 h1         1 SXO       0.063200
     49 H42A         8.1410    -2.6260    -7.3900 h1         1 SXO       0.063200
     50 H43         10.3920    -1.8220    -6.7590 h1         1 SXO       0.078700
     51 H43A        10.3860    -0.7180    -8.1420 h1         1 SXO       0.078700
     52 H2          13.1180    -4.7080    -9.0750 hc         1 SXO       0.070700
     53 H2A         13.1120    -3.6050   -10.4580 hc         1 SXO       0.070700
     54 H3          14.8840    -3.3510    -8.0010 hc         1 SXO       0.056700
     55 H3A         14.8780    -2.2480    -9.3840 hc         1 SXO       0.056700
     56 H4          15.5210    -4.1130   -10.8750 hc         1 SXO       0.039200
     57 H4A         15.5290    -5.2160    -9.4920 hc         1 SXO       0.039200
     58 H5          17.2960    -3.8580    -8.4180 hc         1 SXO       0.043700
     59 H5A         17.2890    -2.7550    -9.8010 hc         1 SXO       0.043700
     60 H6          17.9390    -5.7240    -9.9090 hc         1 SXO       0.040200
     61 H6A         17.9330    -4.6200   -11.2920 hc         1 SXO       0.040200
     62 H7          19.7000    -3.2640   -10.2170 hc         1 SXO       0.040700
     63 H7A         19.7060    -4.3680    -8.8340 hc         1 SXO       0.040700
     64 H8          21.5290    -4.9090   -10.4200 hc         1 SXO       0.031033
     65 H8A         20.3370    -5.1360   -11.7070 hc         1 SXO       0.031033
     66 H8B         20.3580    -6.2300   -10.3180 hc         1 SXO       0.031033
@<TRIPOS>BOND
     1     2     1 1
     2     4     2 1
     3     2     5 1
     4     2     3 1
     5     5     6 1
     6     6    33 1
     7     6     7 1
     8     6    32 1
     9     9     7 1
    10     7    10 1
    11     7     8 1
    12    34     8 1
    13     8    36 1
    14     8    35 1
    15    37     9 1
    16    38     9 1
    17     9    39 1
    18    11    10 1
    19    10    12 1
    20    10    40 1
    21    41    11 1
    22    13    12 2
    23    12    14 1
    24    14    15 1
    25    14    42 1
    26    43    15 1
    27    15    44 1
    28    15    16 1
    29    17    16 1
    30    16    46 1
    31    16    45 1
    32    19    17 1
    33    17    18 2
    34    47    19 1
    35    20    19 1
    36    21    20 1
    37    48    20 1
    38    20    49 1
    39    22    21 1
    40    51    21 1
    41    21    50 1
    42    23    22 1
    43    25    23 1
    44    23    24 2
    45    26    25 1
    46    52    25 1
    47    25    53 1
    48    55    26 1
    49    54    26 1
    50    26    27 1
    51    28    27 1
    52    27    56 1
    53    27    57 1
    54    59    28 1
    55    58    28 1
    56    28    29 1
    57    60    29 1
    58    29    30 1
    59    29    61 1
    60    31    30 1
    61    30    62 1
    62    30    63 1
    63    65    31 1
    64    64    31 1
    65    31    66 1
@<TRIPOS>SUBSTRUCTURE
     1 SXO         1 TEMP              0 ****  ****    0 ROOT
