@<TRIPOS>MOLECULE
SXO
   66    65     1     0     0
SMALL
bcc


@<TRIPOS>ATOM
      1 O25         5.6250   -0.7720   -4.4220 o         1 SXO     -0.910167
      2 P24         6.6850   -0.0170   -3.6440 p5        1 SXO      1.328900
      3 O26         7.0520   -0.5190   -2.2870 o         1 SXO     -0.910167
      4 O23         7.7590    0.4640   -4.5830 o         1 SXO     -0.910167
      5 O27         5.7570    1.3940   -3.3430 os        1 SXO     -0.583200
      6 C28         4.9750    1.3350   -2.2130 c3        1 SXO      0.220400
      7 C29         3.5320    1.8480   -2.4570 c3        1 SXO     -0.109000
      8 C30         2.7900    1.7480   -1.1270 c3        1 SXO     -0.078600
      9 C31         3.5890    3.3000   -2.8930 c3        1 SXO     -0.078600
     10 C32         2.7420    1.0120   -3.4870 c3        1 SXO      0.128100
     11 O33         2.9940   -0.3650   -3.3990 oh        1 SXO     -0.652800
     12 C34         2.8840    1.5740   -4.9160 c         1 SXO      0.636100
     13 O35         2.0140    2.3880   -5.3340 o         1 SXO     -0.730100
     14 N36         3.9020    1.1290   -5.7050 n         1 SXO     -0.543900
     15 C37         4.1750    1.6950   -6.9930 c3        1 SXO      0.108000
     16 C38         5.6030    2.2220   -7.1670 c3        1 SXO     -0.178400
     17 C39         6.4920    1.2300   -7.8970 c         1 SXO      0.650100
     18 O40         6.8610    1.4750   -9.0750 o         1 SXO     -0.706100
     19 N41         6.8050    0.0570   -7.2530 n         1 SXO     -0.512900
     20 C42         7.8630   -0.7880   -7.7340 c3        1 SXO      0.107000
     21 C43         9.2240   -0.5000   -7.1020 c3        1 SXO     -0.081300
     22 S1         10.2500   -1.9390   -7.0930 ss        1 SXO     -0.206700
     23 C1         11.2960   -1.8690   -8.4260 c         1 SXO      0.533700
     24 O1         11.4250   -0.9830   -9.2850 o         1 SXO     -0.566100
     25 C2         12.1490   -3.1150   -8.4660 c3        1 SXO     -0.174400
     26 C3         13.6210   -2.7710   -8.5370 c3        1 SXO     -0.073400
     27 C4         14.4660   -4.0150   -8.7050 c3        1 SXO     -0.077400
     28 C5         15.9400   -3.6740   -8.7590 c3        1 SXO     -0.079400
     29 C6         16.7870   -4.9150   -8.9330 c3        1 SXO     -0.078400
     30 C7         18.2610   -4.5750   -8.9860 c3        1 SXO     -0.081400
     31 C8         19.1100   -5.8080   -9.1590 c3        1 SXO     -0.090100
     32 H28         5.4100    2.0080   -1.4120 h1        1 SXO      0.007200
     33 H28A        4.9300    0.2850   -1.8060 h1        1 SXO      0.007200
     34 H30         1.7850    2.2280   -1.2000 hc        1 SXO      0.023533
     35 H30A        2.6580    0.6730   -0.8520 hc        1 SXO      0.023533
     36 H30B        3.3670    2.2580   -0.3200 hc        1 SXO      0.023533
     37 H31         2.5820    3.6590   -3.2160 hc        1 SXO      0.023533
     38 H31A        3.9500    3.9410   -2.0530 hc        1 SXO      0.023533
     39 H31B        4.3030    3.3990   -3.7480 hc        1 SXO      0.023533
     40 H32         1.6380    1.1050   -3.2480 h1        1 SXO      0.043700
     41 HO33        3.9470   -0.5410   -3.5990 ho        1 SXO      0.489000
     42 HN36        4.6210    0.5280   -5.2870 hn        1 SXO      0.401500
     43 H37         3.4570    2.5450   -7.1860 h1        1 SXO      0.036200
     44 H37A        3.9810    0.9050   -7.7760 h1        1 SXO      0.036200
     45 H38         6.0720    2.4700   -6.1750 hc        1 SXO      0.076700
     46 H38A        5.5690    3.1570   -7.7830 hc        1 SXO      0.076700
     47 HN41        6.6650    0.0150   -6.2350 hn        1 SXO      0.397500
     48 H42         7.5710   -1.8500   -7.4850 h1        1 SXO      0.045200
     49 H42A        7.9440   -0.6890   -8.8540 h1        1 SXO      0.045200
     50 H43         9.7290    0.3480   -7.6170 h1        1 SXO      0.141700
     51 H43A        9.0860   -0.2250   -6.0040 h1        1 SXO      0.141700
     52 H2         11.8530   -3.7070   -9.3730 hc        1 SXO      0.061200
     53 H2A        11.9460   -3.7500   -7.5630 hc        1 SXO      0.061200
     54 H3         13.7940   -2.0700   -9.3970 hc        1 SXO      0.052200
     55 H3A        13.9250   -2.2310   -7.6020 hc        1 SXO      0.052200
     56 H4         14.2740   -4.7180   -7.8520 hc        1 SXO      0.036200
     57 H4A        14.1690   -4.5480   -9.6460 hc        1 SXO      0.036200
     58 H5         16.2370   -3.1440   -7.8160 hc        1 SXO      0.040200
     59 H5A        16.1300   -2.9660   -9.6090 hc        1 SXO      0.040200
     60 H6         16.4900   -5.4450   -9.8760 hc        1 SXO      0.037200
     61 H6A        16.5960   -5.6220   -8.0830 hc        1 SXO      0.037200
     62 H7         18.4500   -3.8660   -9.8350 hc        1 SXO      0.037700
     63 H7A        18.5560   -4.0440   -8.0420 hc        1 SXO      0.037700
     64 H8         18.9530   -6.5160   -8.3090 hc        1 SXO      0.027700
     65 H8A        18.8470   -6.3370  -10.1070 hc        1 SXO      0.027700
     66 H8B        20.1920   -5.5350   -9.1950 hc        1 SXO      0.027700
@<TRIPOS>BOND
     1    1    2 1   
     2    2    3 1   
     3    2    4 1   
     4    2    5 1   
     5    5    6 1   
     6    6    7 1   
     7    6   32 1   
     8    6   33 1   
     9    7    8 1   
    10    7    9 1   
    11    7   10 1   
    12    8   34 1   
    13    8   35 1   
    14    8   36 1   
    15    9   37 1   
    16    9   38 1   
    17    9   39 1   
    18   10   11 1   
    19   10   12 1   
    20   10   40 1   
    21   11   41 1   
    22   12   13 2   
    23   12   14 1   
    24   14   15 1   
    25   14   42 1   
    26   15   16 1   
    27   15   43 1   
    28   15   44 1   
    29   16   17 1   
    30   16   45 1   
    31   16   46 1   
    32   17   18 2   
    33   17   19 1   
    34   19   20 1   
    35   19   47 1   
    36   20   21 1   
    37   20   48 1   
    38   20   49 1   
    39   21   22 1   
    40   21   50 1   
    41   21   51 1   
    42   22   23 1   
    43   23   24 2   
    44   23   25 1   
    45   25   26 1   
    46   25   52 1   
    47   25   53 1   
    48   26   27 1   
    49   26   54 1   
    50   26   55 1   
    51   27   28 1   
    52   27   56 1   
    53   27   57 1   
    54   28   29 1   
    55   28   58 1   
    56   28   59 1   
    57   29   30 1   
    58   29   60 1   
    59   29   61 1   
    60   30   31 1   
    61   30   62 1   
    62   30   63 1   
    63   31   64 1   
    64   31   65 1   
    65   31   66 1   
@<TRIPOS>SUBSTRUCTURE
     1 SXO         1 TEMP              0 ****  ****    0 ROOT
