@<TRIPOS>MOLECULE
SXR
   68    68     1     0     0
SMALL
bcc


@<TRIPOS>ATOM
      1 P24          0.0000     0.0000     0.0000 p3         1 SXR       0.471300
      2 O26          1.6110     0.0000     0.0000 oh         1 SXR      -0.582600
      3 O23         -0.3340     0.0000     1.5760 oh         1 SXR      -0.582600
      4 O27         -0.3340     1.5200    -0.4130 os         1 SXR      -0.412900
      5 C28         -0.4920     1.9410    -1.7700 c3         1 SXR       0.301400
      6 C29         -0.8030     3.4390    -1.8060 c3         1 SXR      -0.087000
      7 C30         -2.0960     3.7090    -1.0340 c3         1 SXR       0.008400
      8 C31          0.3480     4.2140    -1.1620 c3         1 SXR       0.008400
      9 C32         -0.9720     3.8890    -3.2580 c3         1 SXR       0.133100
     10 O33         -2.1250     3.2610    -3.8210 oh         1 SXR      -0.554800
     11 C34          0.2490     3.4990    -4.0500 c          1 SXR       0.542100
     12 O35          0.1860     2.5950    -4.8560 o          1 SXR      -0.621100
     13 N36          1.4120     4.1550    -3.8630 ns         1 SXR      -0.227900
     14 C37          2.5670     3.8540    -4.7110 c3         1 SXR       0.065000
     15 C38          3.7500     4.7300    -4.2930 c3         1 SXR      -0.111400
     16 C39          4.9390     4.4210    -5.1660 c          1 SXR       0.576100
     17 O40          4.8490     3.5800    -6.0350 o          1 SXR      -0.631100
     18 N41          6.1010     5.0760    -4.9790 ns         1 SXR      -0.205900
     19 C42          7.2570     4.7740    -5.8270 c3         1 SXR       0.071000
     20 C43          8.4390     5.6520    -5.4090 c3         1 SXR       0.068700
     21 S1           9.8700     5.2780    -6.4590 ss         1 SXR      -0.394200
     22 C11         17.4090     9.0080    -7.6620 ca         1 SXR      -0.098000
     23 C10         18.6720     9.0110    -8.2270 ca         1 SXR      -0.098000
     24 C9          19.6520     8.1720    -7.7320 ca         1 SXR      -0.103000
     25 C8          19.3720     7.3290    -6.6720 ca         1 SXR      -0.098000
     26 C7          18.1100     7.3260    -6.1070 ca         1 SXR      -0.098000
     27 C6          17.1280     8.1660    -6.6020 ca         1 SXR      -0.097300
     28 C5          15.7540     8.1620    -5.9860 c3         1 SXR       0.039900
     29 C4          14.8760     7.1350    -6.7030 c3         1 SXR      -0.118400
     30 C3          13.5010     7.1320    -6.0860 c          1 SXR       0.603100
     31 O3          13.2490     7.8750    -5.1680 o          1 SXR      -0.559100
     32 C2          12.4400     6.2020    -6.6160 c3         1 SXR      -0.104400
     33 C1          11.1470     6.3980    -5.8210 c3         1 SXR       0.093700
     34 H1           1.9250    -0.8890    -0.0040 ho         1 SXR       0.421500
     35 H2          -0.7860    -0.7960     1.8010 ho         1 SXR       0.421500
     36 H28A         0.4230     1.7490    -2.3170 h1         1 SXR       0.000200
     37 H28B        -1.3070     1.3920    -2.2260 h1         1 SXR       0.000200
     38 H30A        -1.9190     3.5730     0.0260 hc         1 SXR       0.010200
     39 H30B        -2.8640     3.0200    -1.3630 hc         1 SXR       0.010200
     40 H30C        -2.4200     4.7260    -1.2180 hc         1 SXR       0.010200
     41 H31A         0.3760     5.2190    -1.5640 hc         1 SXR       0.010200
     42 H31B         1.2850     3.7130    -1.3750 hc         1 SXR       0.010200
     43 H31C         0.1980     4.2580    -0.0900 hc         1 SXR       0.010200
     44 H32A        -1.0950     4.9650    -3.2900 h1         1 SXR       0.007700
     45 H33A        -2.5280     3.8430    -4.4430 ho         1 SXR       0.390000
     46 H36A         1.4690     4.8860    -3.1820 hn         1 SXR       0.184500
     47 H37A         2.8340     2.8100    -4.5990 h1         1 SXR       0.042200
     48 H37B         2.3170     4.0530    -5.7460 h1         1 SXR       0.042200
     49 H38A         3.4820     5.7740    -4.4050 hc         1 SXR       0.028200
     50 H38B         3.9990     4.5310    -3.2580 hc         1 SXR       0.028200
     51 H41A         6.1680     5.7850    -4.2760 hn         1 SXR       0.172500
     52 H42A         7.5240     3.7300    -5.7150 h1         1 SXR       0.041200
     53 H42B         7.0070     4.9740    -6.8620 h1         1 SXR       0.041200
     54 H43A         8.1710     6.6950    -5.5210 h1         1 SXR       0.036200
     55 H43B         8.6880     5.4520    -4.3740 h1         1 SXR       0.036200
     56 H10A        18.8920     9.6710    -9.0570 ha         1 SXR       0.103000
     57 H9A         20.6410     8.1750    -8.1750 ha         1 SXR       0.102000
     58 H8A         20.1410     6.6720    -6.2850 ha         1 SXR       0.103000
     59 H7A         17.8890     6.6660    -5.2770 ha         1 SXR       0.105000
     60 H5A         15.3110     9.1460    -6.0840 hc         1 SXR       0.030700
     61 H5B         15.8290     7.9040    -4.9370 hc         1 SXR       0.030700
     62 H4A         15.3180     6.1510    -6.6050 hc         1 SXR       0.038700
     63 H4B         14.8010     7.3940    -7.7520 hc         1 SXR       0.038700
     64 H2A         12.7750     5.1760    -6.5140 hc         1 SXR       0.048700
     65 H2B         12.2580     6.4190    -7.6620 hc         1 SXR       0.048700
     66 H1A         11.3290     6.1800    -4.7760 h1         1 SXR       0.045700
     67 H1B         10.8120     7.4230    -5.9240 h1         1 SXR       0.045700
     68 H11A        16.6410     9.6660    -8.0490 ha         1 SXR       0.105000
@<TRIPOS>BOND
     1     1     2 1   
     2     1     3 1   
     3     1     4 1   
     4     2    34 1   
     5     3    35 1   
     6     4     5 1   
     7     5     6 1   
     8     5    36 1   
     9     5    37 1   
    10     6     7 1   
    11     6     8 1   
    12     6     9 1   
    13     7    38 1   
    14     7    39 1   
    15     7    40 1   
    16     8    41 1   
    17     8    42 1   
    18     8    43 1   
    19     9    10 1   
    20     9    11 1   
    21     9    44 1   
    22    10    45 1   
    23    11    12 2   
    24    11    13 1   
    25    13    14 1   
    26    13    46 1   
    27    14    15 1   
    28    14    47 1   
    29    14    48 1   
    30    15    16 1   
    31    15    49 1   
    32    15    50 1   
    33    16    17 2   
    34    16    18 1   
    35    18    19 1   
    36    18    51 1   
    37    19    20 1   
    38    19    52 1   
    39    19    53 1   
    40    20    21 1   
    41    20    54 1   
    42    20    55 1   
    43    21    33 1   
    44    22    23 ar  
    45    22    27 ar  
    46    22    68 1   
    47    23    24 ar  
    48    23    56 1   
    49    24    25 ar  
    50    24    57 1   
    51    25    26 ar  
    52    25    58 1   
    53    26    27 ar  
    54    26    59 1   
    55    27    28 1   
    56    28    29 1   
    57    28    60 1   
    58    28    61 1   
    59    29    30 1   
    60    29    62 1   
    61    29    63 1   
    62    30    31 2   
    63    30    32 1   
    64    32    33 1   
    65    32    64 1   
    66    32    65 1   
    67    33    66 1   
    68    33    67 1   
@<TRIPOS>SUBSTRUCTURE
     1 SXR         1 TEMP              0 ****  ****    0 ROOT
