@<TRIPOS>MOLECULE
molecule
   68    68     1     0     0
SMALL
bcc


@<TRIPOS>ATOM
      1 P24          0.0000     0.0000     0.0000 p3         1 SXR       0.248300
      2 O26          1.6110     0.0000     0.0000 oh         1 SXR      -0.514600
      3 O23         -0.3340     0.0000     1.5760 oh         1 SXR      -0.514600
      4 O27         -0.3340     1.5200    -0.4130 os         1 SXR      -0.353900
      5 C28         -0.4920     1.9410    -1.7700 c3         1 SXR       0.200400
      6 C29         -0.8030     3.4390    -1.8060 c3         1 SXR      -0.058000
      7 C30         -2.0960     3.7090    -1.0340 c3         1 SXR      -0.081100
      8 C31          0.3480     4.2140    -1.1620 c3         1 SXR      -0.081100
      9 C32         -0.9720     3.8890    -3.2580 c3         1 SXR       0.085100
     10 O33         -2.1250     3.2610    -3.8210 oh         1 SXR      -0.572800
     11 C34          0.2490     3.4990    -4.0500 c          1 SXR       0.627100
     12 O35          0.1860     2.5950    -4.8560 o          1 SXR      -0.580100
     13 N36          1.4120     4.1550    -3.8630 ns         1 SXR      -0.598900
     14 C37          2.5670     3.8540    -4.7110 c3         1 SXR       0.126000
     15 C38          3.7500     4.7300    -4.2930 c3         1 SXR      -0.178400
     16 C39          4.9390     4.4210    -5.1660 c          1 SXR       0.662100
     17 O40          4.8490     3.5800    -6.0350 o          1 SXR      -0.595100
     18 N41          6.1010     5.0760    -4.9790 ns         1 SXR      -0.589900
     19 C42          7.2570     4.7740    -5.8270 c3         1 SXR       0.127000
     20 C43          8.4390     5.6520    -5.4090 c3         1 SXR      -0.006300
     21 S1           9.8700     5.2780    -6.4590 ss         1 SXR      -0.343200
     22 C11         17.4090     9.0080    -7.6620 ca         1 SXR      -0.125000
     23 C10         18.6720     9.0110    -8.2270 ca         1 SXR      -0.125000
     24 C9          19.6520     8.1720    -7.7320 ca         1 SXR      -0.129000
     25 C8          19.3720     7.3290    -6.6720 ca         1 SXR      -0.125000
     26 C7          18.1100     7.3260    -6.1070 ca         1 SXR      -0.125000
     27 C6          17.1280     8.1660    -6.6020 ca         1 SXR      -0.088300
     28 C5          15.7540     8.1620    -5.9860 c3         1 SXR      -0.026100
     29 C4          14.8760     7.1350    -6.7030 c3         1 SXR      -0.176400
     30 C3          13.5010     7.1320    -6.0860 c          1 SXR       0.564100
     31 O3          13.2490     7.8750    -5.1680 o          1 SXR      -0.527100
     32 C2          12.4400     6.2020    -6.6160 c3         1 SXR      -0.169400
     33 C1          11.1470     6.3980    -5.8210 c3         1 SXR       0.025700
     34 H1           1.9250    -0.8890    -0.0040 ho         1 SXR       0.426000
     35 H2          -0.7860    -0.7960     1.8010 ho         1 SXR       0.426000
     36 H28A         0.4230     1.7490    -2.3170 h1         1 SXR       0.045200
     37 H28B        -1.3070     1.3920    -2.2260 h1         1 SXR       0.045200
     38 H30A        -1.9190     3.5730     0.0260 hc         1 SXR       0.042700
     39 H30B        -2.8640     3.0200    -1.3630 hc         1 SXR       0.042700
     40 H30C        -2.4200     4.7260    -1.2180 hc         1 SXR       0.042700
     41 H31A         0.3760     5.2190    -1.5640 hc         1 SXR       0.042700
     42 H31B         1.2850     3.7130    -1.3750 hc         1 SXR       0.042700
     43 H31C         0.1980     4.2580    -0.0900 hc         1 SXR       0.042700
     44 H32A        -1.0950     4.9650    -3.2900 h1         1 SXR       0.045700
     45 H33A        -2.5280     3.8430    -4.4430 ho         1 SXR       0.408000
     46 H36A         1.4690     4.8860    -3.1820 hn         1 SXR       0.312500
     47 H37A         2.8340     2.8100    -4.5990 h1         1 SXR       0.071700
     48 H37B         2.3170     4.0530    -5.7460 h1         1 SXR       0.071700
     49 H38A         3.4820     5.7740    -4.4050 hc         1 SXR       0.062200
     50 H38B         3.9990     4.5310    -3.2580 hc         1 SXR       0.062200
     51 H41A         6.1680     5.7850    -4.2760 hn         1 SXR       0.312500
     52 H42A         7.5240     3.7300    -5.7150 h1         1 SXR       0.068200
     53 H42B         7.0070     4.9740    -6.8620 h1         1 SXR       0.068200
     54 H43A         8.1710     6.6950    -5.5210 h1         1 SXR       0.061200
     55 H43B         8.6880     5.4520    -4.3740 h1         1 SXR       0.061200
     56 H10A        18.8920     9.6710    -9.0570 ha         1 SXR       0.130000
     57 H9A         20.6410     8.1750    -8.1750 ha         1 SXR       0.130000
     58 H8A         20.1410     6.6720    -6.2850 ha         1 SXR       0.130000
     59 H7A         17.8890     6.6660    -5.2770 ha         1 SXR       0.130000
     60 H5A         15.3110     9.1460    -6.0840 hc         1 SXR       0.061700
     61 H5B         15.8290     7.9040    -4.9370 hc         1 SXR       0.061700
     62 H4A         15.3180     6.1510    -6.6050 hc         1 SXR       0.070700
     63 H4B         14.8010     7.3940    -7.7520 hc         1 SXR       0.070700
     64 H2A         12.7750     5.1760    -6.5140 hc         1 SXR       0.079200
     65 H2B         12.2580     6.4190    -7.6620 hc         1 SXR       0.079200
     66 H1A         11.3290     6.1800    -4.7760 h1         1 SXR       0.070700
     67 H1B         10.8120     7.4230    -5.9240 h1         1 SXR       0.070700
     68 H11A        16.6410     9.6660    -8.0490 ha         1 SXR       0.130000
@<TRIPOS>BOND
     1     1     2 1
     2     1     3 1
     3     1     4 1
     4     4     5 1
     5     5     6 1
     6     6     7 1
     7     6     8 1
     8     6     9 1
     9     9    10 1
    10     9    11 1
    11    11    12 2
    12    11    13 1
    13    13    14 1
    14    14    15 1
    15    15    16 1
    16    16    17 2
    17    16    18 1
    18    18    19 1
    19    19    20 1
    20    20    21 1
    21    21    33 1
    22    22    23 ar
    23    22    27 ar
    24    23    24 ar
    25    24    25 ar
    26    25    26 ar
    27    26    27 ar
    28    27    28 1
    29    28    29 1
    30    29    30 1
    31    30    31 2
    32    30    32 1
    33    32    33 1
    34     2    34 1
    35     3    35 1
    36     5    36 1
    37     5    37 1
    38     7    38 1
    39     7    39 1
    40     7    40 1
    41     8    41 1
    42     8    42 1
    43     8    43 1
    44     9    44 1
    45    10    45 1
    46    13    46 1
    47    14    47 1
    48    14    48 1
    49    15    49 1
    50    15    50 1
    51    18    51 1
    52    19    52 1
    53    19    53 1
    54    20    54 1
    55    20    55 1
    56    22    68 1
    57    23    56 1
    58    24    57 1
    59    25    58 1
    60    26    59 1
    61    28    60 1
    62    28    61 1
    63    29    62 1
    64    29    63 1
    65    32    64 1
    66    32    65 1
    67    33    66 1
    68    33    67 1
@<TRIPOS>SUBSTRUCTURE
     1 SXR         1 TEMP              0 ****  ****    0 ROOT
