@<TRIPOS>MOLECULE
molecule
   19    20     1     0     0
SMALL
bcc


@<TRIPOS>ATOM
      1 O1           0.0000     0.0000     0.0000 o          1 SXS      -0.575500
      2 C2           1.2150     0.0000     0.0000 c          1 SXS       0.688100
      3 N3           1.9050     0.0000     1.1500 ns         1 SXS      -0.636300
      4 C4           1.9700    -0.0040    -1.2570 ca         1 SXS      -0.136600
      5 C5           1.5100    -0.0100    -2.5870 ca         1 SXS      -0.043000
      6 C6           2.4020    -0.0150    -3.6310 ca         1 SXS      -0.119000
      7 C7           3.7740    -0.0120    -3.3970 ca         1 SXS       0.187600
      8 N8           4.6680    -0.0160    -4.4630 nv         1 SXS      -0.990200
      9 C11          4.2450    -0.0060    -2.0830 ca         1 SXS      -0.022000
     10 C12          3.3580    -0.0030    -1.0480 ca         1 SXS      -0.248500
     11 S13          3.5190     0.0010     0.7160 sy         1 SXS       1.390900
     12 O14          4.0640     1.2580     1.0960 o          1 SXS      -0.604800
     13 O15          4.0650    -1.2540     1.0940 o          1 SXS      -0.604800
     14 HN3          1.5300     0.0440     2.0770 hn         1 SXS       0.382500
     15 H5           0.4460    -0.0120    -2.7880 ha         1 SXS       0.156000
     16 H6           2.0330    -0.0210    -4.6490 ha         1 SXS       0.150000
     17 HN8          4.9920     0.8500    -4.8470 hn         1 SXS       0.437800
     18 HN8A         4.9940    -0.8840    -4.8400 hn         1 SXS       0.437800
     19 H11          5.3110    -0.0040    -1.8870 ha         1 SXS       0.150000
@<TRIPOS>BOND
     1     1     2 2
     2     2     3 1
     3     2     4 1
     4     3    11 1
     5     4     5 ar
     6     4    10 ar
     7     5     6 ar
     8     6     7 ar
     9     7     8 1
    10     7     9 ar
    11     9    10 ar
    12    10    11 1
    13    11    12 2
    14    11    13 2
    15     3    14 1
    16     5    15 1
    17     6    16 1
    18     8    17 1
    19     8    18 1
    20     9    19 1
@<TRIPOS>SUBSTRUCTURE
     1 SXS         1 TEMP              0 ****  ****    0 ROOT
