@<TRIPOS>MOLECULE
SXV
   54    53     1     0     0
SMALL
bcc


@<TRIPOS>ATOM
      1 O25          0.0000     0.0000     0.0000 o          1 SXV      -0.724500
      2 P24          1.4800     0.0000     0.0000 p5         1 SXV       0.688900
      3 O26          2.0170     0.0000     1.5180 o          1 SXV      -0.724500
      4 O23          2.0160    -1.3140    -0.7600 o          1 SXV      -0.724500
      5 O27          2.0170     1.3150    -0.7590 os         1 SXV      -0.484200
      6 C28          1.6280     2.6400    -0.3900 c3         1 SXV       0.284400
      7 C29          2.3170     3.6480    -1.3100 c3         1 SXV      -0.096000
      8 C30          3.8350     3.5070    -1.1780 c3         1 SXV       0.014900
      9 C31          1.9050     3.3810    -2.7600 c3         1 SXV       0.014900
     10 C32          1.9010     5.0670    -0.9150 c3         1 SXV       0.134100
     11 O33          2.3990     5.3620     0.3910 oh         1 SXV      -0.530800
     12 C34          0.3980     5.1680    -0.9150 c          1 SXV       0.562100
     13 O35         -0.2050     5.2440     0.1350 o          1 SXV      -0.620100
     14 N36         -0.2770     5.1740    -2.0820 ns         1 SXV      -0.238900
     15 C37         -1.7280     5.3840    -2.0880 c3         1 SXV       0.067000
     16 C38         -2.2420     5.3450    -3.5280 c3         1 SXV      -0.109400
     17 C39         -3.7340     5.5620    -3.5350 c          1 SXV       0.579100
     18 O40         -4.3260     5.7320    -2.4900 o          1 SXV      -0.631100
     19 N41         -4.4090     5.5680    -4.7010 ns         1 SXV      -0.223900
     20 C42         -5.8590     5.7790    -4.7070 c3         1 SXV       0.073000
     21 C43         -6.3730     5.7390    -6.1470 c3         1 SXV       0.064700
     22 S1          -8.1680     6.0010    -6.1550 ss         1 SXV      -0.451200
     23 C1          -8.5860     5.9210    -7.9180 c3         1 SXV       0.075700
     24 C2         -10.0900     6.1270    -8.0970 c3         1 SXV      -0.101400
     25 C3         -10.4370     6.0600    -9.5620 c          1 SXV       0.598100
     26 O3          -9.5680     5.8690   -10.3790 o          1 SXV      -0.561100
     27 C4         -11.8660     6.2340   -10.0080 c3         1 SXV      -0.093100
     28 H28          1.9200     2.8290     0.6360 h1         1 SXV      -0.008300
     29 H28A         0.5540     2.7400    -0.4840 h1         1 SXV      -0.008300
     30 H30          4.1470     2.5580    -1.5970 hc         1 SXV      -0.001467
     31 H30A         4.3210     4.3150    -1.7120 hc         1 SXV      -0.001467
     32 H30B         4.1110     3.5480    -0.1310 hc         1 SXV      -0.001467
     33 H31          2.0480     4.2800    -3.3470 hc         1 SXV      -0.001467
     34 H31A         0.8620     3.0910    -2.7910 hc         1 SXV      -0.001467
     35 H31B         2.5140     2.5840    -3.1670 hc         1 SXV      -0.001467
     36 H32          2.3110     5.7750    -1.6260 h1         1 SXV      -0.026300
     37 HO33         2.5430     6.2910     0.4700 ho         1 SXV       0.354000
     38 HN36         0.2200     5.0990    -2.9470 hn         1 SXV       0.180500
     39 H37         -2.2080     4.6040    -1.5110 h1         1 SXV       0.039200
     40 H37A        -1.9540     6.3490    -1.6500 h1         1 SXV       0.039200
     41 H38         -1.7610     6.1250    -4.1050 hc         1 SXV       0.027200
     42 H38A        -2.0160     4.3800    -3.9660 hc         1 SXV       0.027200
     43 HN41        -3.9250     5.3930    -5.5600 hn         1 SXV       0.170500
     44 H42         -6.0850     6.7440    -4.2690 h1         1 SXV       0.036200
     45 H42A        -6.3400     4.9990    -4.1300 h1         1 SXV       0.036200
     46 H43         -6.1470     4.7750    -6.5850 h1         1 SXV       0.031700
     47 H43A        -5.8920     6.5200    -6.7240 h1         1 SXV       0.031700
     48 H1          -8.3050     4.9520    -8.3130 h1         1 SXV       0.041200
     49 H1A         -8.0500     6.6970    -8.4520 h1         1 SXV       0.041200
     50 H2         -10.3710     7.0960    -7.7030 hc         1 SXV       0.044200
     51 H2A        -10.6270     5.3510    -7.5630 hc         1 SXV       0.044200
     52 H4         -12.2280     7.2030    -9.6880 hc         1 SXV       0.022033
     53 H4A        -11.9180     6.1670   -11.0880 hc         1 SXV       0.022033
     54 H4B        -12.4780     5.4560    -9.5680 hc         1 SXV       0.022033
@<TRIPOS>BOND
     1     1     2 1   
     2     2     3 1   
     3     2     4 1   
     4     2     5 1   
     5     5     6 1   
     6     6     7 1   
     7     6    28 1   
     8     6    29 1   
     9     7     8 1   
    10     7     9 1   
    11     7    10 1   
    12     8    30 1   
    13     8    31 1   
    14     8    32 1   
    15     9    33 1   
    16     9    34 1   
    17     9    35 1   
    18    10    11 1   
    19    10    12 1   
    20    10    36 1   
    21    11    37 1   
    22    12    13 2   
    23    12    14 1   
    24    14    15 1   
    25    14    38 1   
    26    15    16 1   
    27    15    39 1   
    28    15    40 1   
    29    16    17 1   
    30    16    41 1   
    31    16    42 1   
    32    17    18 2   
    33    17    19 1   
    34    19    20 1   
    35    19    43 1   
    36    20    21 1   
    37    20    44 1   
    38    20    45 1   
    39    21    22 1   
    40    21    46 1   
    41    21    47 1   
    42    22    23 1   
    43    23    24 1   
    44    23    48 1   
    45    23    49 1   
    46    24    25 1   
    47    24    50 1   
    48    24    51 1   
    49    25    26 2   
    50    25    27 1   
    51    27    52 1   
    52    27    53 1   
    53    27    54 1   
@<TRIPOS>SUBSTRUCTURE
     1 SXV         1 TEMP              0 ****  ****    0 ROOT
