@<TRIPOS>MOLECULE
molecule
   27    27     1     0     0
SMALL
bcc


@<TRIPOS>ATOM
      1 C1           0.0000     0.0000     0.0000 ca         1 SXX       0.009100
      2 C2           1.3920     0.0000     0.0000 ca         1 SXX       0.124100
      3 C3           2.0850     0.0000     1.1960 ca         1 SXX      -0.258000
      4 C4           1.3840    -0.0060     2.4080 ca         1 SXX       0.054200
      5 C5          -0.0140    -0.0110     2.4040 ca         1 SXX      -0.258000
      6 C6          -0.6990    -0.0110     1.2040 ca         1 SXX       0.124100
      7 O7          -0.6770     0.0010    -1.1780 oh         1 SXX      -0.501100
      8 O8          -2.0600    -0.0160     1.1990 os         1 SXX      -0.298900
      9 O9           2.0710     0.0070    -1.1780 os         1 SXX      -0.298900
     10 C10          2.1170    -0.0060     3.6820 ce         1 SXX      -0.183200
     11 C11          1.4410    -0.0120     4.8500 cf         1 SXX      -0.120200
     12 C12          2.1460    -0.0120     6.0790 c          1 SXX       0.856800
     13 O13          1.4710    -0.0180     7.2470 o          1 SXX      -0.837800
     14 O14          3.3630    -0.0070     6.0810 o          1 SXX      -0.837800
     15 C15          3.4630     0.0110    -0.8520 c3         1 SXX       0.103700
     16 C14         -2.4780    -0.0210     2.5660 c3         1 SXX       0.103700
     17 H3           3.1670    -0.0520     1.1960 ha         1 SXX       0.153000
     18 H5          -0.5580    -0.0860     3.3380 ha         1 SXX       0.153000
     19 H7          -0.8380     0.8900    -1.4480 ho         1 SXX       0.399000
     20 H10          3.2000    -0.0020     3.6830 ha         1 SXX       0.155000
     21 H11          0.3570    -0.0170     4.8480 ha         1 SXX       0.102000
     22 H151         4.0470     0.0320    -1.7640 h1         1 SXX       0.043033
     23 H152         3.7050    -0.8810    -0.2880 h1         1 SXX       0.043033
     24 H153         3.6920     0.8870    -0.2570 h1         1 SXX       0.043033
     25 H141        -2.1070    -0.9140     3.0540 h1         1 SXX       0.043033
     26 H142        -3.5600    -0.0070     2.6120 h1         1 SXX       0.043033
     27 H143        -2.0840     0.8540     3.0680 h1         1 SXX       0.043033
@<TRIPOS>BOND
     1     1     2 ar
     2     1     6 ar
     3     1     7 1
     4     2     3 ar
     5     2     9 1
     6     3     4 ar
     7     3    17 1
     8     4     5 ar
     9     4    10 1
    10     5     6 ar
    11     5    18 1
    12     6     8 1
    13     7    19 1
    14     8    16 1
    15     9    15 1
    16    10    11 2
    17    10    20 1
    18    11    12 1
    19    11    21 1
    20    12    13 1
    21    12    14 1
    22    15    22 1
    23    15    23 1
    24    15    24 1
    25    16    25 1
    26    16    26 1
    27    16    27 1
@<TRIPOS>SUBSTRUCTURE
     1 SXX         1 TEMP              0 ****  ****    0 ROOT
