@<TRIPOS>MOLECULE
SXX
   27    27     1     0     0
SMALL
bcc


@<TRIPOS>ATOM
      1 C1          0.0880    0.1730    0.2480 ca        1 SXX      0.059100
      2 C2          1.4370   -0.2150    0.1570 ca        1 SXX      0.072600
      3 C3          2.1470   -0.6380    1.2820 ca        1 SXX     -0.185500
      4 C4          1.5110   -0.6850    2.5310 ca        1 SXX      0.018200
      5 C5          0.1610   -0.3210    2.6330 ca        1 SXX     -0.185500
      6 C6         -0.5460    0.1130    1.5090 ca        1 SXX      0.072600
      7 O7         -0.6490    0.5740   -0.8450 oh        1 SXX     -0.489100
      8 O8         -1.8740    0.4950    1.5330 os        1 SXX     -0.342900
      9 O9          1.9870   -0.1830   -1.1230 os        1 SXX     -0.342900
     10 C10         2.2630   -1.1420    3.6890 ce        1 SXX     -0.185200
     11 C11         2.0920   -0.7970    4.9690 cf        1 SXX     -0.143200
     12 C12         1.1230    0.1870    5.5820 c         1 SXX      0.896800
     13 O13        -0.0980   -0.1380    5.6870 o         1 SXX     -0.833300
     14 O14         1.5990    1.2750    6.0110 o         1 SXX     -0.833300
     15 C15         3.3400    0.2560   -1.1670 c3        1 SXX      0.115700
     16 C14        -2.4440    0.6280    2.8350 c3        1 SXX      0.115700
     17 H3          3.2030   -0.9230    1.1900 ha        1 SXX      0.171000
     18 H5         -0.3220   -0.3650    3.6310 ha        1 SXX      0.171000
     19 H7         -0.0240    0.6900   -1.5770 ho        1 SXX      0.413000
     20 H10         3.0730   -1.8490    3.4290 ha        1 SXX      0.087000
     21 H11         2.7590   -1.2440    5.7280 ha        1 SXX      0.099000
     22 H151        4.0180   -0.5740   -0.8480 h1        1 SXX      0.041867
     23 H152        3.5120    0.5060   -2.2430 h1        1 SXX      0.041867
     24 H153        3.4990    1.1510   -0.5190 h1        1 SXX      0.041867
     25 H141       -3.4440    1.0860    2.6330 h1        1 SXX      0.041867
     26 H142       -2.5580   -0.3770    3.3100 h1        1 SXX      0.041867
     27 H143       -1.8220    1.2910    3.4850 h1        1 SXX      0.041867
@<TRIPOS>BOND
     1    1    2 ar  
     2    1    6 ar  
     3    1    7 1   
     4    2    3 ar  
     5    2    9 1   
     6    3    4 ar  
     7    3   17 1   
     8    4    5 ar  
     9    4   10 1   
    10    5    6 ar  
    11    5   18 1   
    12    6    8 1   
    13    7   19 1   
    14    8   16 1   
    15    9   15 1   
    16   10   11 2   
    17   10   20 1   
    18   11   12 1   
    19   11   21 1   
    20   12   13 1   
    21   12   14 1   
    22   15   22 1   
    23   15   23 1   
    24   15   24 1   
    25   16   25 1   
    26   16   26 1   
    27   16   27 1   
@<TRIPOS>SUBSTRUCTURE
     1 SXX         1 TEMP              0 ****  ****    0 ROOT
