@<TRIPOS>MOLECULE
molecule
   59    61     1     0     0
SMALL
bcc


@<TRIPOS>ATOM
      1 O            0.0000     0.0000     0.0000 o          1 SXZ      -0.834800
      2 C            1.2090     0.0000     0.0000 c          1 SXZ       0.887600
      3 OXT          1.8800     0.0000     1.1620 o          1 SXZ      -0.834800
      4 CA           1.9620    -0.0050    -1.3050 c3         1 SXZ       0.008700
      5 N            1.0090    -0.0100    -2.4190 ns         1 SXZ      -0.554900
      6 CB           2.8410     1.2440    -1.3920 c3         1 SXZ      -0.063400
      7 CG           3.6980     1.1780    -2.6570 c3         1 SXZ       0.018700
      8 SD           4.7410     2.6590    -2.7590 ss         1 SXZ      -0.343200
      9 C5'          5.6670     2.4000    -4.2980 c3         1 SXZ       0.005700
     10 C4'          6.6080     3.5820    -4.5310 c3         1 SXZ       0.146100
     11 O4'          7.6770     3.5740    -3.5600 os         1 SXZ      -0.394600
     12 C1'          8.7280     4.3750    -4.1440 c3         1 SXZ       0.252800
     13 C2'          8.7420     3.9780    -5.6380 c3         1 SXZ       0.087100
     14 O2'          9.0080     5.1190    -6.4560 oh         1 SXZ      -0.562800
     15 C3'          7.3160     3.4460    -5.8980 c3         1 SXZ       0.090100
     16 O3'          6.6560     4.2420    -6.8850 oh         1 SXZ      -0.570800
     17 N9          10.0160     4.0580    -3.5210 na         1 SXZ      -0.250000
     18 C8          10.3430     2.8950    -2.8900 cc         1 SXZ       0.439700
     19 N7          11.5680     2.9550    -2.4540 nd         1 SXZ      -0.596100
     20 C5          12.1030     4.1570    -2.7760 ca         1 SXZ      -0.209200
     21 C6          13.3510     4.7700    -2.5710 ca         1 SXZ       0.785200
     22 N6          14.3640     4.1080    -1.9010 nv         1 SXZ      -0.987500
     23 N1          13.5350     6.0010    -3.0380 nb         1 SXZ      -0.842000
     24 C2          12.5750     6.6410    -3.6790 ca         1 SXZ       0.733900
     25 N3          11.3910     6.1070    -3.8940 nb         1 SXZ      -0.784000
     26 C4          11.1160     4.8780    -3.4700 ca         1 SXZ       0.474800
     27 C1           0.4940    -1.1750    -2.8600 c          1 SXZ       0.662100
     28 O2           0.8190    -2.2190    -2.3350 o          1 SXZ      -0.621100
     29 C3          -0.4850    -1.1790    -4.0050 c3         1 SXZ      -0.156400
     30 C7          -0.9120    -2.6180    -4.3050 c3         1 SXZ      -0.057700
     31 C9          -1.6840    -3.1800    -3.1090 c3         1 SXZ      -0.087600
     32 C10         -1.8080    -2.6350    -5.5450 c3         1 SXZ      -0.087600
     33 H2           2.5850    -0.8900    -1.3590 h1         1 SXZ       0.073700
     34 H3           0.7220     0.8530    -2.8340 hn         1 SXZ       0.295500
     35 H4           3.4840     1.2940    -0.5220 hc         1 SXZ       0.070200
     36 H5           2.2120     2.1260    -1.4270 hc         1 SXZ       0.070200
     37 H6           3.0550     1.1290    -3.5270 h1         1 SXZ       0.051700
     38 H7           4.3260     0.2950    -2.6220 h1         1 SXZ       0.051700
     39 H8           6.2460     1.4870    -4.2220 h1         1 SXZ       0.061700
     40 H9           4.9740     2.3200    -5.1270 h1         1 SXZ       0.061700
     41 H10          6.0650     4.5190    -4.4830 h1         1 SXZ       0.091700
     42 H11          8.5000     5.4290    -4.0380 h2         1 SXZ       0.112700
     43 H12          9.4740     3.1990    -5.8140 h1         1 SXZ       0.052700
     44 H13          9.5820     4.8730    -7.1620 ho         1 SXZ       0.404000
     45 H14          7.3510     2.4070    -6.2020 h1         1 SXZ       0.048700
     46 H15          6.4120     3.6980    -7.6150 ho         1 SXZ       0.400000
     47 H16          9.6810     2.0460    -2.7690 h5         1 SXZ       0.094800
     48 H17         15.2420     4.5610    -1.7460 hn         1 SXZ       0.448300
     49 H18         14.2210     3.1710    -1.5780 hn         1 SXZ       0.448300
     50 H19         12.7680     7.6430    -4.0420 h5         1 SXZ       0.058100
     51 H20         -0.0160    -0.7510    -4.8820 hc         1 SXZ       0.047700
     52 H21         -1.3550    -0.5920    -3.7370 hc         1 SXZ       0.047700
     53 H22         -0.0330    -3.2250    -4.4860 hc         1 SXZ       0.058700
     54 H23         -2.1410    -2.3660    -2.5590 hc         1 SXZ       0.032200
     55 H24         -2.4560    -3.8540    -3.4620 hc         1 SXZ       0.032200
     56 H25         -1.0040    -3.7180    -2.4600 hc         1 SXZ       0.032200
     57 H26         -2.0750    -3.6580    -5.7830 hc         1 SXZ       0.032200
     58 H27         -2.7070    -2.0630    -5.3490 hc         1 SXZ       0.032200
     59 H28         -1.2760    -2.1970    -6.3810 hc         1 SXZ       0.032200
@<TRIPOS>BOND
     1    31    30 1
     2    32    30 1
     3    30    29 1
     4    29    27 1
     5    27    28 2
     6    27     5 1
     7     5     4 1
     8     1     2 1
     9     4     2 1
    10     4     6 1
    11     2     3 1
    12     7     6 1
    13     7     8 1
    14     8     9 1
    15     9    10 1
    16    11    10 1
    17    11    12 1
    18    10    15 1
    19    18    19 2
    20    18    17 1
    21    19    20 1
    22    17    12 1
    23    17    26 1
    24    15    13 1
    25    15    16 1
    26    12    13 1
    27    20    26 ar
    28    20    21 ar
    29    22    21 1
    30    13    14 1
    31    26    25 ar
    32    21    23 ar
    33    25    24 ar
    34    23    24 ar
    35     4    33 1
    36     5    34 1
    37     6    35 1
    38     6    36 1
    39     7    37 1
    40     7    38 1
    41     9    39 1
    42     9    40 1
    43    10    41 1
    44    12    42 1
    45    13    43 1
    46    14    44 1
    47    15    45 1
    48    16    46 1
    49    18    47 1
    50    22    48 1
    51    22    49 1
    52    24    50 1
    53    29    51 1
    54    29    52 1
    55    30    53 1
    56    31    54 1
    57    31    55 1
    58    31    56 1
    59    32    57 1
    60    32    58 1
    61    32    59 1
@<TRIPOS>SUBSTRUCTURE
     1 SXZ         1 TEMP              0 ****  ****    0 ROOT
