@<TRIPOS>MOLECULE
SY1
   49    52     1     0     0
SMALL
bcc


@<TRIPOS>ATOM
      1 N1           0.0000     0.0000     0.0000 nz         1 SY1      -0.657600
      2 C4           3.5300     0.0820     1.4360 c3         1 SY1      -0.139400
      3 C5           4.0200     1.2820     0.6280 c3         1 SY1      -0.127200
      4 C7           1.9840     1.2140    -0.7780 c3         1 SY1      -0.413200
      5 C8           4.2160     1.1630    -1.8240 cc         1 SY1       0.122800
      6 C10          5.3250    -0.1180    -3.4370 ca         1 SY1       0.086400
      7 C13          6.9170    -0.4110    -5.7300 ca         1 SY1      -0.073000
      8 C15          5.8060     1.0020    -4.1150 ca         1 SY1      -0.177600
      9 C20          2.9800     4.1410    -2.4430 ca         1 SY1      -0.090300
     10 C21          2.3380     3.3670    -3.4050 ca         1 SY1      -0.135000
     11 C22          1.1350     3.8070    -3.9580 ca         1 SY1      -0.075000
     12 C24          1.2280     5.7910    -2.5820 ca         1 SY1      -0.053000
     13 N27          3.5820     6.8190    -0.2310 n1         1 SY1      -0.341800
     14 C25          2.4310     5.3510    -2.0290 ca         1 SY1       0.064000
     15 C23          0.5810     5.0190    -3.5470 ca         1 SY1      -0.090000
     16 N18          4.6610     2.3500    -2.4470 n          1 SY1      -0.037300
     17 N6           3.4460     1.2450    -0.7150 nh         1 SY1       0.737400
     18 C3           2.0030     0.0000     1.4370 c3         1 SY1       0.198600
     19 C2           1.4610     0.0000     0.0000 c3         1 SY1       0.627500
     20 C16          5.4620     2.3410    -3.6000 c          1 SY1       0.645100
     21 O17          5.8780     3.3350    -4.1880 o          1 SY1      -0.585500
     22 N9           4.5290    -0.0170    -2.2920 nd         1 SY1      -0.444100
     23 C14          6.6010     0.8620    -5.2590 ca         1 SY1      -0.017000
     24 C12          6.4410    -1.5380    -5.0630 ca         1 SY1      -0.064000
     25 C11          5.6500    -1.3910    -3.9230 ca         1 SY1      -0.063000
     26 HN11        -0.3340     0.8500     0.4100 hn         1 SY1       0.413133
     27 HN12        -0.3340    -0.0700    -0.9410 hn         1 SY1       0.413133
     28 H41          4.0400     0.0730     2.3920 hc         1 SY1       0.064700
     29 H42          2.4640     0.1830     1.6010 hc         1 SY1       0.064700
     30 H51          3.7750     1.1250    -0.4150 h1         1 SY1      -0.086800
     31 H52          5.0950     1.3590     0.7340 h1         1 SY1      -0.086800
     32 H71          1.6380     0.2680    -0.3800 h1         1 SY1      -0.165800
     33 H72          1.6770     1.2980    -1.8140 h1         1 SY1      -0.165800
     34 H13          7.6700    -0.5350    -6.4980 ha         1 SY1       0.124000
     35 H21          2.8120     2.4740    -3.7940 ha         1 SY1       0.109000
     36 H22          0.5950     3.1630    -4.6410 ha         1 SY1       0.106000
     37 H24          0.7950     6.7320    -2.2650 ha         1 SY1       0.126000
     38 H23         -0.3600     5.3490    -3.9710 ha         1 SY1       0.119000
     39 H191         4.0970     3.2380    -0.8780 h1         1 SY1       0.048200
     40 H192         4.9850     4.4490    -1.8120 h1         1 SY1       0.048200
     41 H31          1.6650    -0.2290     0.4330 hc         1 SY1      -0.000300
     42 H32          1.6960    -0.7940     2.1060 hc         1 SY1      -0.000300
     43 H2           1.8090    -0.8990    -0.4950 hx         1 SY1      -0.121300
     44 H14          6.8120     1.7350    -5.8650 ha         1 SY1       0.140000
     45 H12          6.6830    -2.5280    -5.4280 ha         1 SY1       0.121000
     46 H11          5.1670    -2.2690    -3.5130 ha         1 SY1       0.120000
     47 C19          4.2730     3.6350    -1.8700 c3         1 SY1       0.094300
     48 C26          3.0760     6.1610    -1.0410 cg         1 SY1       0.203800
     49 H131        -0.3340    -0.0980    -0.9380 hn         1 SY1       0.413133
@<TRIPOS>BOND
     1     1    19 1   
     2     1    26 1   
     3     1    27 1   
     4     1    49 1   
     5     2     3 1   
     6     2    18 1   
     7     2    28 1   
     8     2    29 1   
     9     3    17 1   
    10     3    30 1   
    11     3    31 1   
    12     4    17 1   
    13     4    19 1   
    14     4    32 1   
    15     4    33 1   
    16     5    16 1   
    17     5    17 1   
    18     5    22 2   
    19     6     8 ar  
    20     6    22 1   
    21     6    25 ar  
    22     7    23 ar  
    23     7    24 ar  
    24     7    34 1   
    25     8    20 1   
    26     8    23 ar  
    27     9    10 ar  
    28     9    14 ar  
    29     9    47 1   
    30    10    11 ar  
    31    10    35 1   
    32    11    15 ar  
    33    11    36 1   
    34    12    14 ar  
    35    12    15 ar  
    36    12    37 1   
    37    13    48 3   
    38    14    48 1   
    39    15    38 1   
    40    16    20 1   
    41    16    47 1   
    42    18    19 1   
    43    18    41 1   
    44    18    42 1   
    45    19    43 1   
    46    20    21 2   
    47    23    44 1   
    48    24    25 ar  
    49    24    45 1   
    50    25    46 1   
    51    39    47 1   
    52    40    47 1   
@<TRIPOS>SUBSTRUCTURE
     1 SY1         1 TEMP              0 ****  ****    0 ROOT
