@<TRIPOS>MOLECULE
molecule
   49    52     1     0     0
SMALL
bcc


@<TRIPOS>ATOM
      1 N1           0.0000     0.0000     0.0000 nz         1 SY1      -1.059600
      2 C4           3.5300     0.0820     1.4360 c3         1 SY1      -0.086400
      3 C5           4.0200     1.2820     0.6280 c3         1 SY1       0.025800
      4 C7           1.9840     1.2140    -0.7780 c3         1 SY1      -0.077200
      5 C8           4.2160     1.1630    -1.8240 cc         1 SY1       0.532800
      6 C10          5.3250    -0.1180    -3.4370 ca         1 SY1       0.140400
      7 C13          6.9170    -0.4110    -5.7300 ca         1 SY1      -0.107000
      8 C15          5.8060     1.0020    -4.1150 ca         1 SY1      -0.169600
      9 C20          2.9800     4.1410    -2.4430 ca         1 SY1      -0.068300
     10 C21          2.3380     3.3670    -3.4050 ca         1 SY1      -0.155000
     11 C22          1.1350     3.8070    -3.9580 ca         1 SY1      -0.109000
     12 C24          1.2280     5.7910    -2.5820 ca         1 SY1      -0.075000
     13 N27          3.5820     6.8190    -0.2310 n1         1 SY1      -0.324800
     14 C25          2.4310     5.3510    -2.0290 ca         1 SY1       0.012000
     15 C23          0.5810     5.0190    -3.5470 ca         1 SY1      -0.125000
     16 N18          4.6610     2.3500    -2.4470 n          1 SY1      -0.410300
     17 N6           3.4460     1.2450    -0.7150 nh         1 SY1      -0.607600
     18 C3           2.0030     0.0000     1.4370 c3         1 SY1      -0.293400
     19 C2           1.4610     0.0000     0.0000 c3         1 SY1       0.657500
     20 C16          5.4620     2.3410    -3.6000 c          1 SY1       0.714100
     21 O17          5.8780     3.3350    -4.1880 o          1 SY1      -0.550500
     22 N9           4.5290    -0.0170    -2.2920 nd         1 SY1      -0.587100
     23 C14          6.6010     0.8620    -5.2590 ca         1 SY1      -0.054000
     24 C12          6.4410    -1.5380    -5.0630 ca         1 SY1      -0.093000
     25 C11          5.6500    -1.3910    -3.9230 ca         1 SY1      -0.094000
     26 HN11        -0.3340     0.8500     0.4100 hn         1 SY1       0.483133
     27 HN12        -0.3340    -0.0700    -0.9410 hn         1 SY1       0.483133
     28 H41          4.0400     0.0730     2.3920 hc         1 SY1       0.152200
     29 H42          2.4640     0.1830     1.6010 hc         1 SY1       0.152200
     30 H51          3.7750     1.1250    -0.4150 h1         1 SY1       0.221700
     31 H52          5.0950     1.3590     0.7340 h1         1 SY1       0.221700
     32 H71          1.6380     0.2680    -0.3800 h1         1 SY1       0.041700
     33 H72          1.6770     1.2980    -1.8140 h1         1 SY1       0.041700
     34 H13          7.6700    -0.5350    -6.4980 ha         1 SY1       0.161000
     35 H21          2.8120     2.4740    -3.7940 ha         1 SY1       0.133000
     36 H22          0.5950     3.1630    -4.6410 ha         1 SY1       0.136000
     37 H24          0.7950     6.7320    -2.2650 ha         1 SY1       0.158000
     38 H23         -0.3600     5.3490    -3.9710 ha         1 SY1       0.151000
     39 H191         4.0970     3.2380    -0.8780 h1         1 SY1       0.087200
     40 H192         4.9850     4.4490    -1.8120 h1         1 SY1       0.087200
     41 H31          1.6650    -0.2290     0.4330 hc         1 SY1       0.052200
     42 H32          1.6960    -0.7940     2.1060 hc         1 SY1       0.052200
     43 H2           1.8090    -0.8990    -0.4950 hx         1 SY1      -0.163300
     44 H14          6.8120     1.7350    -5.8650 ha         1 SY1       0.175000
     45 H12          6.6830    -2.5280    -5.4280 ha         1 SY1       0.158000
     46 H11          5.1670    -2.2690    -3.5130 ha         1 SY1       0.153000
     47 C19          4.2730     3.6350    -1.8700 c3         1 SY1       0.134300
     48 C26          3.0760     6.1610    -1.0410 cg         1 SY1       0.211800
     49 H131        -0.3340    -0.0980    -0.9380 hn         1 SY1       0.483133
@<TRIPOS>BOND
     1     1    19 1
     2     1    26 1
     3     1    27 1
     4     2     3 1
     5     2    18 1
     6     2    28 1
     7     2    29 1
     8     3    17 1
     9     3    30 1
    10     3    31 1
    11     4    17 1
    12     4    19 1
    13     4    32 1
    14     4    33 1
    15     5    16 1
    16     5    22 2
    17     5    17 1
    18     6     8 ar
    19     6    25 ar
    20     6    22 1
    21     7    23 ar
    22     7    24 ar
    23     7    34 1
    24     8    23 ar
    25     8    20 1
    26     9    10 ar
    27     9    47 1
    28     9    14 ar
    29    10    11 ar
    30    10    35 1
    31    11    15 ar
    32    11    36 1
    33    12    15 ar
    34    12    14 ar
    35    12    37 1
    36    48    14 1
    37    48    13 3
    38    15    38 1
    39    47    16 1
    40    47    39 1
    41    47    40 1
    42    16    20 1
    43    18    19 1
    44    18    41 1
    45    18    42 1
    46    19    43 1
    47    20    21 2
    48    23    44 1
    49    24    25 ar
    50    24    45 1
    51    25    46 1
    52    49     1 1
@<TRIPOS>SUBSTRUCTURE
     1 SY1         1 TEMP              0 ****  ****    0 ROOT
