@<TRIPOS>MOLECULE
molecule
   75    75     1     0     0
SMALL
bcc


@<TRIPOS>ATOM
      1 C8           0.0000     0.0000     0.0000 c          1 SY2       0.773100
      2 C6           2.9910     1.4530    -3.0920 c3         1 SY2      -0.078600
      3 C5           0.8400     2.0570    -1.9740 c3         1 SY2      -0.078600
      4 C4           2.2260     1.4450    -1.7660 c3         1 SY2      -0.068700
      5 O2           3.7740    -0.9900     0.0300 o          1 SY2      -0.841800
      6 C1           3.4460    -0.5960    -1.0640 c          1 SY2       0.888600
      7 C3           2.0800     0.0060    -1.2700 c3         1 SY2       0.023700
      8 N7           1.3470     0.0000     0.0000 ns         1 SY2      -0.556900
      9 N36         -0.6740     0.0000     1.1680 ns         1 SY2      -0.604900
     10 C11         -2.1380     0.0060     1.1680 c3         1 SY2       0.076700
     11 C15         -2.6380     0.6060     2.4580 c          1 SY2       0.642100
     12 N17         -3.8190     1.2540     2.4870 ns         1 SY2      -0.600900
     13 C18         -4.2530     1.9310     3.7100 c3         1 SY2       0.046700
     14 C34         -5.2250     3.0560     3.3630 c3         1 SY2      -0.076400
     15 C33         -6.6790     2.5860     3.3980 c3         1 SY2      -0.097400
     16 C32         -6.9930     1.7350     2.1750 c3         1 SY2      -0.108400
     17 C31         -8.4410     1.2770     2.1330 c3         1 SY2       0.107000
     18 N30         -9.1400     1.4410     3.4100 ns         1 SY2      -0.587900
     19 C28         -8.7480     0.7190     4.4880 c          1 SY2       0.676300
     20 O29         -9.3870     0.7730     5.5230 o          1 SY2      -0.617100
     21 C27         -7.5440    -0.1120     4.4080 ce         1 SY2      -0.277200
     22 C26         -6.9680    -0.6100     5.4980 c2         1 SY2      -0.067200
     23 C22         -5.6140    -1.2660     5.3310 c3         1 SY2       0.145900
     24 C23         -4.9330    -1.4370     6.6870 c3         1 SY2      -0.083700
     25 C25         -5.7800    -2.3540     7.5710 c3         1 SY2      -0.089100
     26 C24         -3.5480    -2.0570     6.4890 c3         1 SY2      -0.089100
     27 N21         -4.8090    -0.3880     4.4510 ns         1 SY2      -0.568900
     28 C19         -4.8690     0.9500     4.6630 c          1 SY2       0.657100
     29 O20         -5.4090     1.3820     5.6650 o          1 SY2      -0.615100
     30 O16         -1.9780     0.5040     3.4700 o          1 SY2      -0.600100
     31 C12         -2.6560    -1.4270     1.0380 c3         1 SY2      -0.089700
     32 C14         -4.1830    -1.4140     0.9510 c3         1 SY2      -0.088100
     33 C13         -2.0780    -2.0650    -0.2270 c3         1 SY2      -0.088100
     34 O9          -0.6090     0.0060    -1.0530 o          1 SY2      -0.700100
     35 H6           2.7470     2.3520    -3.6450 hc         1 SY2       0.028867
     36 H6A          2.7110     0.5830    -3.6750 hc         1 SY2       0.028867
     37 H6B          4.0560     1.4280    -2.8940 hc         1 SY2       0.028867
     38 H5           0.9380     3.0100    -2.4790 hc         1 SY2       0.028867
     39 H5A          0.2370     1.3890    -2.5780 hc         1 SY2       0.028867
     40 H5B          0.3620     2.2050    -1.0140 hc         1 SY2       0.028867
     41 H3           1.5350    -0.5760    -2.0040 h1         1 SY2       0.072700
     42 HN7          1.8480    -0.0300     0.8660 hn         1 SY2       0.327500
     43 HN36        -0.1730     0.0330     2.0340 hn         1 SY2       0.328500
     44 H11         -2.4970     0.5960     0.3330 h1         1 SY2       0.082700
     45 HN17        -4.3710     1.3240     1.6550 hn         1 SY2       0.320500
     46 H18         -3.3830     2.3670     4.1860 h1         1 SY2       0.104700
     47 H34         -5.0990     3.8620     4.0760 hc         1 SY2       0.058200
     48 H34A        -4.9970     3.4240     2.3700 hc         1 SY2       0.058200
     49 H33         -6.8440     1.9990     4.2930 hc         1 SY2       0.069700
     50 H33A        -7.3330     3.4490     3.4100 hc         1 SY2       0.069700
     51 H32         -6.3510     0.8630     2.1820 hc         1 SY2       0.041200
     52 H32A        -6.7850     2.3150     1.2840 hc         1 SY2       0.041200
     53 H31         -8.4650     0.2300     1.8570 h1         1 SY2       0.041700
     54 H31A        -8.9640     1.8480     1.3760 h1         1 SY2       0.041700
     55 HN30        -9.9660     2.0050     3.4590 hn         1 SY2       0.325500
     56 H22         -5.7360    -2.2350     4.8620 h1         1 SY2       0.066700
     57 H23         -4.8300    -0.4700     7.1640 hc         1 SY2       0.081700
     58 H25         -6.5210    -1.7640     8.0980 hc         1 SY2       0.036867
     59 H25A        -5.1410    -2.8550     8.2880 hc         1 SY2       0.036867
     60 H25B        -6.2780    -3.0920     6.9540 hc         1 SY2       0.036867
     61 H24         -3.1860    -2.4420     7.4340 hc         1 SY2       0.036867
     62 H24A        -3.6130    -2.8650     5.7700 hc         1 SY2       0.036867
     63 H24B        -2.8640    -1.3010     6.1210 hc         1 SY2       0.036867
     64 HN21        -4.4420    -0.7420     3.5900 hn         1 SY2       0.326500
     65 H12         -2.3490    -2.0020     1.9040 hc         1 SY2       0.057700
     66 H14         -4.5080    -0.5080     0.4540 hc         1 SY2       0.038533
     67 H14A        -4.5200    -2.2760     0.3890 hc         1 SY2       0.038533
     68 H14B        -4.6020    -1.4480     1.9500 hc         1 SY2       0.038533
     69 H13         -1.0090    -2.1910    -0.1120 hc         1 SY2       0.038533
     70 H13A        -2.2770    -1.4240    -1.0770 hc         1 SY2       0.038533
     71 H13B        -2.5410    -3.0320    -0.3880 hc         1 SY2       0.038533
     72 H27         -7.0340    -0.1960     3.4570 ha         1 SY2       0.129000
     73 H26         -7.3750    -0.4090     6.4810 ha         1 SY2       0.167000
     74 O35          4.2950    -0.6990    -2.0980 o          1 SY2      -0.841800
     75 H4           2.7700     2.0270    -1.0320 hc         1 SY2       0.037700
@<TRIPOS>BOND
     1     1    34 2
     2     2    35 1
     3     2    36 1
     4     2    37 1
     5     3    38 1
     6     3    39 1
     7     3    40 1
     8     4     2 1
     9     4     3 1
    10     4    75 1
    11     5     6 1
    12     6    74 1
    13     6     7 1
    14     7     4 1
    15     7    41 1
    16     8     1 1
    17     8     7 1
    18     8    42 1
    19     9     1 1
    20     9    10 1
    21     9    43 1
    22    10    11 1
    23    10    44 1
    24    11    30 2
    25    11    12 1
    26    12    13 1
    27    12    45 1
    28    13    14 1
    29    13    28 1
    30    13    46 1
    31    14    47 1
    32    14    48 1
    33    15    14 1
    34    15    16 1
    35    15    49 1
    36    15    50 1
    37    16    17 1
    38    16    51 1
    39    16    52 1
    40    17    18 1
    41    17    53 1
    42    17    54 1
    43    18    19 1
    44    18    55 1
    45    19    20 2
    46    21    19 1
    47    21    22 2
    48    23    22 1
    49    23    24 1
    50    23    56 1
    51    24    26 1
    52    24    57 1
    53    25    24 1
    54    25    58 1
    55    25    59 1
    56    25    60 1
    57    26    61 1
    58    26    62 1
    59    26    63 1
    60    27    23 1
    61    27    64 1
    62    28    27 1
    63    29    28 2
    64    31    10 1
    65    31    33 1
    66    31    65 1
    67    32    31 1
    68    32    66 1
    69    32    67 1
    70    32    68 1
    71    33    69 1
    72    33    70 1
    73    33    71 1
    74    21    72 1
    75    22    73 1
@<TRIPOS>SUBSTRUCTURE
     1 SY2         1 TEMP              0 ****  ****    0 ROOT
