@<TRIPOS>MOLECULE
SY2
   75    76     1     0     0
SMALL
bcc


@<TRIPOS>ATOM
      1 C8           0.0000     0.0000     0.0000 c2         1 SY2       0.192000
      2 C6           2.9910     1.4530    -3.0920 c3         1 SY2      -0.129500
      3 C5           0.8400     2.0570    -1.9740 c3         1 SY2      -0.129500
      4 C4           2.2260     1.4450    -1.7660 c3         1 SY2      -0.076000
      5 O2           3.7740    -0.9900     0.0300 o          1 SY2      -0.623500
      6 C1           3.4460    -0.5960    -1.0640 c2         1 SY2       0.397000
      7 C3           2.0800     0.0060    -1.2700 c3         1 SY2      -0.114000
      8 N7           1.3470     0.0000     0.0000 ns         1 SY2       0.041000
      9 N36         -0.6740     0.0000     1.1680 ns         1 SY2      -0.039000
     10 C11         -2.1380     0.0060     1.1680 c3         1 SY2      -0.050000
     11 C15         -2.6380     0.6060     2.4580 c2         1 SY2       0.210000
     12 N17         -3.8190     1.2540     2.4870 ns         1 SY2      -0.025000
     13 C18         -4.2530     1.9310     3.7100 c3         1 SY2      -0.073000
     14 C34         -5.2250     3.0560     3.3630 c3         1 SY2      -0.086000
     15 C33         -6.6790     2.5860     3.3980 c3         1 SY2      -0.162000
     16 C32         -6.9930     1.7350     2.1750 c3         1 SY2      -0.128000
     17 C31         -8.4410     1.2770     2.1330 c3         1 SY2      -0.056000
     18 N30         -9.1400     1.4410     3.4100 n7         1 SY2      -0.026000
     19 C28         -8.7480     0.7190     4.4880 c3         1 SY2       0.359000
     20 O29         -9.3870     0.7730     5.5230 o          1 SY2      -0.440000
     21 C27         -7.5440    -0.1120     4.4080 c2         1 SY2      -0.219000
     22 C26         -6.9680    -0.6100     5.4980 c2         1 SY2       0.048000
     23 C22         -5.6140    -1.2660     5.3310 c3         1 SY2      -0.019000
     24 C23         -4.9330    -1.4370     6.6870 c3         1 SY2      -0.131000
     25 C25         -5.7800    -2.3540     7.5710 c3         1 SY2      -0.118000
     26 C24         -3.5480    -2.0570     6.4890 c3         1 SY2      -0.118000
     27 N21         -4.8090    -0.3880     4.4510 ns         1 SY2      -0.040000
     28 C19         -4.8690     0.9500     4.6630 c2         1 SY2       0.241000
     29 O20         -5.4090     1.3820     5.6650 o          1 SY2      -0.398000
     30 O16         -1.9780     0.5040     3.4700 o          1 SY2      -0.415000
     31 C12         -2.6560    -1.4270     1.0380 c3         1 SY2      -0.101000
     32 C14         -4.1830    -1.4140     0.9510 c3         1 SY2      -0.132500
     33 C13         -2.0780    -2.0650    -0.2270 c3         1 SY2      -0.132500
     34 O9          -0.6090     0.0060    -1.0530 o          1 SY2      -0.510000
     35 H6           2.7130     2.3290    -3.6640 hc         1 SY2       0.044667
     36 H6A          4.0560     1.4730    -2.8940 hc         1 SY2       0.044667
     37 H6B          2.7450     0.5610    -3.6550 hc         1 SY2       0.044667
     38 H5           0.2160     1.3600    -2.5210 hc         1 SY2       0.044667
     39 H5A          0.3890     2.2670    -1.0120 hc         1 SY2       0.044667
     40 H5B          0.9320     2.9780    -2.5380 hc         1 SY2       0.044667
     41 H3           1.5350    -0.5760    -2.0040 h1         1 SY2       0.096000
     42 HN7          1.8480    -0.0130     0.8670 hn         1 SY2       0.101000
     43 HN36        -0.1730     0.0290     2.0340 hn         1 SY2       0.105000
     44 H11         -2.4970     0.5960     0.3330 h1         1 SY2       0.101000
     45 HN17        -4.3700     1.3250     1.6540 hn         1 SY2       0.109000
     46 H18         -3.3830     2.3670     4.1860 h1         1 SY2       0.110000
     47 H34         -5.0990     3.8620     4.0760 hc         1 SY2       0.063500
     48 H34A        -4.9970     3.4240     2.3700 hc         1 SY2       0.063500
     49 H33         -6.8440     1.9990     4.2930 hc         1 SY2       0.091000
     50 H33A        -7.3330     3.4490     3.4100 hc         1 SY2       0.091000
     51 H32         -6.3510     0.8630     2.1820 hc         1 SY2       0.059000
     52 H32A        -6.7850     2.3150     1.2840 hc         1 SY2       0.059000
     53 H31         -8.9640     1.8480     1.3760 h1         1 SY2       0.051000
     54 H31A        -8.4650     0.2300     1.8570 h1         1 SY2       0.051000
     55 HN30        -9.9650     2.0070     3.4590 hn         1 SY2       0.100000
     56 H22         -5.7360    -2.2350     4.8620 h1         1 SY2       0.085000
     57 H23         -4.8300    -0.4700     7.1640 hc         1 SY2       0.108000
     58 H25         -6.6960    -1.8450     7.8460 hc         1 SY2       0.046500
     59 H25A        -5.2250    -2.6060     8.4660 hc         1 SY2       0.046500
     60 H25B        -6.0190    -3.2600     7.0270 hc         1 SY2       0.046500
     61 H24         -3.5880    -2.7800     5.6830 hc         1 SY2       0.046500
     62 H24A        -3.2390    -2.5510     7.4020 hc         1 SY2       0.046500
     63 H24B        -2.8360    -1.2780     6.2410 hc         1 SY2       0.046500
     64 HN21        -4.0680    -0.7740     3.9000 hn         1 SY2       0.114000
     65 H12         -2.3490    -2.0020     1.9040 hc         1 SY2       0.068000
     66 H14         -4.5220    -2.2980     0.4260 hc         1 SY2       0.051667
     67 H14A        -4.6010    -1.4040     1.9500 hc         1 SY2       0.051667
     68 H14B        -4.5060    -0.5290     0.4160 hc         1 SY2       0.051667
     69 H13         -1.0150    -2.2270    -0.0970 hc         1 SY2       0.051667
     70 H13A        -2.5690    -3.0140    -0.4090 hc         1 SY2       0.051667
     71 H13B        -2.2430    -1.4060    -1.0710 hc         1 SY2       0.051667
     72 H27         -8.5190    -0.5760     4.5020 DU         1 SY2       0.036000
     73 H26         -6.9000    -1.6710     5.2910 ha         1 SY2       0.054000
     74 O35          4.3020    -0.6810    -2.0930 o          1 SY2      -0.623500
     75 H4           2.7700     2.0270    -1.0320 hc         1 SY2       0.052000
@<TRIPOS>BOND
     1     1     8 1   
     2     1     9 1   
     3     1    34 1   
     4     2     4 1   
     5     2    35 1   
     6     2    36 1   
     7     2    37 1   
     8     3     4 1   
     9     3    38 1   
    10     3    39 1   
    11     3    40 1   
    12     4     7 1   
    13     4    75 1   
    14     5     6 1   
    15     6     7 1   
    16     6    74 1   
    17     7     8 1   
    18     7    41 1   
    19     8    42 1   
    20     9    10 1   
    21     9    43 1   
    22    10    11 1   
    23    10    31 1   
    24    10    44 1   
    25    11    12 1   
    26    11    30 1   
    27    12    13 1   
    28    12    45 1   
    29    13    14 1   
    30    13    28 1   
    31    13    46 1   
    32    14    15 1   
    33    14    47 1   
    34    14    48 1   
    35    15    16 1   
    36    15    49 1   
    37    15    50 1   
    38    16    17 1   
    39    16    51 1   
    40    16    52 1   
    41    17    18 1   
    42    17    53 1   
    43    17    54 1   
    44    18    19 1   
    45    18    55 1   
    46    19    20 1   
    47    19    21 1   
    48    19    72 1   
    49    21    22 1   
    50    21    72 1   
    51    22    23 1   
    52    22    73 1   
    53    23    24 1   
    54    23    27 1   
    55    23    56 1   
    56    24    25 1   
    57    24    26 1   
    58    24    57 1   
    59    25    58 1   
    60    25    59 1   
    61    25    60 1   
    62    26    61 1   
    63    26    62 1   
    64    26    63 1   
    65    27    28 1   
    66    27    64 1   
    67    28    29 1   
    68    31    32 1   
    69    31    33 1   
    70    31    65 1   
    71    32    66 1   
    72    32    67 1   
    73    32    68 1   
    74    33    69 1   
    75    33    70 1   
    76    33    71 1   
@<TRIPOS>SUBSTRUCTURE
     1 SY2         1 TEMP              0 ****  ****    0 ROOT
