@<TRIPOS>MOLECULE
molecule
   17    17     1     0     0
SMALL
bcc


@<TRIPOS>ATOM
      1 C1           0.0000     0.0000     0.0000 ca         1 SYC       0.412200
      2 N2           1.3180     0.0000     0.0000 nb         1 SYC      -0.686000
      3 C3           2.0110     0.0000     1.1220 ca         1 SYC       0.536600
      4 C4           1.3720    -0.0010     2.3480 ca         1 SYC      -0.243300
      5 C5          -0.0130    -0.0020     2.3870 ca         1 SYC      -0.115000
      6 C6          -0.7080    -0.0000     1.1870 ca         1 SYC      -0.337300
      7 C11          3.5180    -0.0000     1.0670 c3         1 SYC      -0.277900
      8 P12          4.1240     1.7190     1.0450 p5         1 SYC       1.019700
      9 O15          3.4930     2.4500    -0.0760 o          1 SYC      -0.898500
     10 O16          3.7490     2.4380     2.4350 o          1 SYC      -0.898500
     11 O17          5.7230     1.7210     0.8540 o          1 SYC      -0.898500
     12 H1          -0.5350     0.0000    -0.9420 h4         1 SYC      -0.021900
     13 H4           1.9470    -0.0010     3.2660 ha         1 SYC       0.144000
     14 H5          -0.5410    -0.0020     3.3330 ha         1 SYC       0.093000
     15 H6          -1.7910    -0.0010     1.1800 ha         1 SYC       0.086000
     16 H11          3.8460    -0.5100     0.1690 hc         1 SYC       0.042700
     17 H11A         3.9110    -0.5110     1.9370 hc         1 SYC       0.042700
@<TRIPOS>BOND
     1     1     2 ar
     2     1     6 ar
     3     2     3 ar
     4     3     4 ar
     5     3     7 1
     6     4     5 ar
     7     5     6 ar
     8     7     8 1
     9     8     9 1
    10     8    10 1
    11     8    11 1
    12     1    12 1
    13     4    13 1
    14     5    14 1
    15     6    15 1
    16     7    16 1
    17     7    17 1
@<TRIPOS>SUBSTRUCTURE
     1 SYC         1 TEMP              0 ****  ****    0 ROOT
