@<TRIPOS>MOLECULE
SYC
   17    16     1     0     0
SMALL
bcc


@<TRIPOS>ATOM
      1 C1         -0.1910   -0.4620    0.0010 c2        1 SYC     -0.012000
      2 N2          1.1220   -0.3030   -0.0700 n2        1 SYC     -0.277000
      3 C3          1.8100    0.0130    1.1140 c2        1 SYC      0.116000
      4 C4          1.0420    0.1600    2.3470 c2        1 SYC     -0.308000
      5 C5         -0.3170   -0.0200    2.3490 c2        1 SYC     -0.056000
      6 C6         -0.9880   -0.3510    1.1590 c2        1 SYC     -0.445000
      7 C11         3.1750    0.1670    1.1420 c2        1 SYC     -0.555000
      8 P12         4.9850    2.0110    1.0450 p3        1 SYC      2.449000
      9 O15         4.2830    3.2100    0.5430 o         1 SYC     -1.155667
     10 O16         5.2690    1.9040    2.4950 o         1 SYC     -1.155667
     11 O17         5.8090    1.2160    0.1070 o         1 SYC     -1.155667
     12 H1         -0.6820   -0.7100   -0.9600 h4        1 SYC      0.074000
     13 H4          1.5900    0.4330    3.2550 ha        1 SYC      0.105000
     14 H5         -0.8940    0.0930    3.2790 ha        1 SYC      0.059000
     15 H6         -2.0670   -0.5010    1.1270 ha        1 SYC      0.075000
     16 H11         3.7950   -0.0120    0.2580 ha        1 SYC      0.120500
     17 H11A        3.6770    0.2800    2.1090 ha        1 SYC      0.120500
@<TRIPOS>BOND
     1    1    2 1   
     2    1    6 1   
     3    1   12 1   
     4    2    3 1   
     5    3    4 1   
     6    3    7 1   
     7    4    5 1   
     8    4   13 1   
     9    5    6 1   
    10    5   14 1   
    11    6   15 1   
    12    7   16 1   
    13    7   17 1   
    14    8    9 1   
    15    8   10 1   
    16    8   11 1   
@<TRIPOS>SUBSTRUCTURE
     1 SYC         1 TEMP              0 ****  ****    0 ROOT
