@<TRIPOS>MOLECULE
molecule
   27    28     1     0     0
SMALL
bcc


@<TRIPOS>ATOM
      1 C1           0.0000     0.0000     0.0000 ca         1 SYD      -0.131000
      2 C2           1.3810     0.0000     0.0000 ca         1 SYD      -0.146500
      3 C3           2.0750     0.0000     1.2080 cp         1 SYD       0.043000
      4 C4           1.3710    -0.0010     2.4100 ca         1 SYD      -0.146500
      5 C5          -0.0100    -0.0020     2.3980 ca         1 SYD      -0.131000
      6 C6          -0.6940    -0.0020     1.1970 ca         1 SYD      -0.179000
      7 C12          3.5590     0.0010     1.2140 cp         1 SYD      -0.275300
      8 C13          4.2710     0.0010     0.0170 ca         1 SYD       0.447200
      9 N14          5.5880     0.0020     0.0210 nb         1 SYD      -0.689000
     10 C15          6.2810     0.0020     1.1440 ca         1 SYD       0.553600
     11 C16          5.6470     0.0020     2.3730 ca         1 SYD      -0.248300
     12 C17          4.2640     0.0060     2.4210 ca         1 SYD      -0.086000
     13 C21          7.7880     0.0020     1.0860 c3         1 SYD      -0.269900
     14 P22          8.3940     1.7210     1.0620 p5         1 SYD       1.003700
     15 O25          7.7610     2.4520    -0.0570 o          1 SYD      -0.889167
     16 O26          8.0200     2.4420     2.4530 o          1 SYD      -0.889167
     17 O27          9.9920     1.7240     0.8690 o          1 SYD      -0.889167
     18 H1          -0.5410     0.0000    -0.9390 ha         1 SYD       0.106000
     19 H2           1.9230     0.0010    -0.9380 ha         1 SYD       0.135000
     20 H4           1.9060    -0.0010     3.3530 ha         1 SYD       0.135000
     21 H5          -0.5580    -0.0030     3.3320 ha         1 SYD       0.106000
     22 H6          -1.7770    -0.0020     1.1920 ha         1 SYD       0.101000
     23 H13          3.7370     0.0010    -0.9250 h4         1 SYD      -0.010900
     24 H16          6.2260     0.0040     3.2880 ha         1 SYD       0.150000
     25 H17          3.7410     0.0060     3.3700 ha         1 SYD       0.103000
     26 H21          8.1150    -0.5090     0.1890 hc         1 SYD       0.047700
     27 H21A         8.1820    -0.5080     1.9560 hc         1 SYD       0.047700
@<TRIPOS>BOND
     1     1     2 ar
     2     1     6 ar
     3     2     3 ar
     4     3     4 ar
     5     3     7 1
     6     4     5 ar
     7     5     6 ar
     8     7     8 ar
     9     7    12 ar
    10     8     9 ar
    11     9    10 ar
    12    10    11 ar
    13    10    13 1
    14    11    12 ar
    15    13    14 1
    16    14    15 1
    17    14    16 1
    18    14    17 1
    19     1    18 1
    20     2    19 1
    21     4    20 1
    22     5    21 1
    23     6    22 1
    24     8    23 1
    25    11    24 1
    26    12    25 1
    27    13    26 1
    28    13    27 1
@<TRIPOS>SUBSTRUCTURE
     1 SYD         1 TEMP              0 ****  ****    0 ROOT
