@<TRIPOS>MOLECULE
SYD
   27    27     1     0     0
SMALL
bcc


@<TRIPOS>ATOM
      1 C1         -0.2650   -0.2770   -0.0060 ca        1 SYD     -0.103500
      2 C2          1.1110   -0.1260   -0.0060 ca        1 SYD     -0.222500
      3 C3          1.8590   -0.0750    1.2040 ca        1 SYD      0.124000
      4 C4          1.1040   -0.1830    2.4060 ca        1 SYD     -0.222500
      5 C5         -0.2730   -0.3280    2.3920 ca        1 SYD     -0.103500
      6 C6         -0.9800   -0.3800    1.1890 ca        1 SYD     -0.267000
      7 C12         3.2650    0.0710    1.2160 c2        1 SYD     -0.355000
      8 C13         4.0710   -0.0420    0.0280 c2        1 SYD      0.020000
      9 N14         5.3740    0.0470   -0.0570 n2        1 SYD     -0.242000
     10 C15         6.1140    0.2880    1.1240 c2        1 SYD      0.055000
     11 C16         5.3690    0.4530    2.3740 c2        1 SYD     -0.270000
     12 C17         4.0150    0.3420    2.4050 c2        1 SYD     -0.043000
     13 C21         7.4730    0.3520    1.1230 c2        1 SYD     -0.401000
     14 P22         9.8650    1.6270    1.0770 p3        1 SYD      2.407000
     15 O25         9.4810    2.9880    0.6550 o         1 SYD     -1.137000
     16 O26        10.0560    1.3410    2.5150 o         1 SYD     -1.137000
     17 O27        10.3760    0.6690    0.0750 o         1 SYD     -1.137000
     18 H1         -0.8070   -0.3110   -0.9640 ha        1 SYD      0.084500
     19 H2          1.6340   -0.0310   -0.9670 ha        1 SYD      0.112500
     20 H4          1.6260   -0.1620    3.3710 ha        1 SYD      0.112500
     21 H5         -0.8200   -0.4090    3.3430 ha        1 SYD      0.084500
     22 H6         -2.0680   -0.4970    1.1830 ha        1 SYD      0.088000
     23 H13         3.5670   -0.2450   -0.9360 h4        1 SYD      0.099000
     24 H16         5.9510    0.6790    3.2760 ha        1 SYD      0.112000
     25 H17         3.4790    0.4820    3.3550 ha        1 SYD      0.082000
     26 H21         8.0670    0.1950    0.2130 ha        1 SYD      0.130000
     27 H21A        8.0050    0.4740    2.0760 ha        1 SYD      0.130000
@<TRIPOS>BOND
     1    1    2 1   
     2    1    6 1   
     3    1   18 1   
     4    2    3 1   
     5    2   19 1   
     6    3    4 1   
     7    3    7 1   
     8    4    5 1   
     9    4   20 1   
    10    5    6 1   
    11    5   21 1   
    12    6   22 1   
    13    7    8 1   
    14    7   12 1   
    15    8    9 1   
    16    8   23 1   
    17    9   10 1   
    18   10   11 1   
    19   10   13 1   
    20   11   12 1   
    21   11   24 1   
    22   12   25 1   
    23   13   26 1   
    24   13   27 1   
    25   14   15 1   
    26   14   16 1   
    27   14   17 1   
@<TRIPOS>SUBSTRUCTURE
     1 SYD         1 TEMP              0 ****  ****    0 ROOT
