@<TRIPOS>MOLECULE
molecule
   23    24     1     0     0
SMALL
bcc


@<TRIPOS>ATOM
      1 C1           0.0000     0.0000     0.0000 ca         1 SYE      -0.157000
      2 C2           1.3610     0.0000     0.0000 ca         1 SYE      -0.161300
      3 C3           2.0590     0.0000     1.2210 ca         1 SYE       0.446600
      4 C4           1.3250     0.0000     2.4330 ca         1 SYE      -0.192300
      5 C5          -0.0790    -0.0000     2.3940 ca         1 SYE      -0.103000
      6 C6          -0.7190    -0.0000     1.1940 ca         1 SYE      -0.188000
      7 N11          3.3950    -0.0000     1.2520 nb         1 SYE      -0.695000
      8 C12          4.0500    -0.0000     2.3880 ca         1 SYE       0.547600
      9 C13          3.3900     0.0000     3.6140 ca         1 SYE      -0.201300
     10 C14          2.0250     0.0010     3.6550 ca         1 SYE      -0.127000
     11 C17          5.5570    -0.0000     2.3650 c3         1 SYE      -0.272900
     12 P18          6.1640     1.7180     2.3550 p5         1 SYE       1.003700
     13 O21          5.5580     2.4500     1.2210 o          1 SYE      -0.890167
     14 O22          5.7590     2.4390     3.7380 o          1 SYE      -0.890167
     15 O23          7.7670     1.7200     2.1990 o          1 SYE      -0.890167
     16 H1          -0.5330    -0.0000    -0.9430 ha         1 SYE       0.096000
     17 H2           1.9040     0.0000    -0.9370 ha         1 SYE       0.136000
     18 H5          -0.6490    -0.0000     3.3150 ha         1 SYE       0.101000
     19 H6          -1.8020    -0.0000     1.1650 ha         1 SYE       0.090000
     20 H13          3.9600     0.0000     4.5360 ha         1 SYE       0.149000
     21 H14          1.4960     0.0010     4.6000 ha         1 SYE       0.105000
     22 H17          5.9320    -0.5110     3.2440 hc         1 SYE       0.047200
     23 H17A         5.9050    -0.5110     1.4750 hc         1 SYE       0.047200
@<TRIPOS>BOND
     1     1     2 ar
     2     1     6 ar
     3     2     3 ar
     4     3     4 ar
     5     3     7 ar
     6     4     5 ar
     7     4    10 ar
     8     5     6 ar
     9     7     8 ar
    10     8     9 ar
    11     8    11 1
    12     9    10 ar
    13    11    12 1
    14    12    13 1
    15    12    14 1
    16    12    15 1
    17     1    16 1
    18     2    17 1
    19     5    18 1
    20     6    19 1
    21     9    20 1
    22    10    21 1
    23    11    22 1
    24    11    23 1
@<TRIPOS>SUBSTRUCTURE
     1 SYE         1 TEMP              0 ****  ****    0 ROOT
