@<TRIPOS>MOLECULE
SYM
   20    19     1     0     0
SMALL
bcc


@<TRIPOS>ATOM
      1 CB          0.0530   -0.5410   -0.4880 c3        1 SYM     -0.072400
      2 CG1         1.5410   -0.3230   -0.2570 c3        1 SYM     -0.181700
      3 CG2         1.7930    0.5840    0.9300 c3        1 SYM     -0.065100
      4 CD          2.2940   -1.6510   -0.0040 c         1 SYM      0.912600
      5 OE1         3.1830   -1.9980   -0.8410 o         1 SYM     -0.869300
      6 OE2         2.0450   -2.3250    1.0390 o         1 SYM     -0.869300
      7 C          -2.1130    0.0960   -1.5780 c         1 SYM      0.914600
      8 OT1        -2.5930   -0.7290   -2.4070 o         1 SYM     -0.865800
      9 OT2        -2.8250    0.7460   -0.7540 o         1 SYM     -0.865800
     10 N          -0.2680    1.7600   -1.5210 n3        1 SYM     -0.907800
     11 CA         -0.5700    0.3380   -1.5870 c3        1 SYM      0.035500
     12 HB1        -0.1190   -1.6090   -0.7850 hc        1 SYM      0.043200
     13 HB2        -0.5060   -0.3730    0.4700 hc        1 SYM      0.043200
     14 HG1         1.9950    0.1350   -1.1790 hc        1 SYM      0.034700
     15 HG21        2.8680    0.8880    0.9620 hc        1 SYM      0.007033
     16 HG22        1.5550    0.0330    1.8730 hc        1 SYM      0.007033
     17 HG23        1.1680    1.5080    0.8950 hc        1 SYM      0.007033
     18 HA         -0.1690   -0.0210   -2.5790 h1        1 SYM      0.042700
     19 HN1         0.6160    1.8980   -1.0660 hn        1 SYM      0.324300
     20 HN2        -0.9700    2.2120   -0.9600 hn        1 SYM      0.324300
@<TRIPOS>BOND
     1    1    2 1
     2    1   11 1
     3    1   12 1
     4    1   13 1
     5    2    3 1
     6    2    4 1
     7    2   14 1
     8    3   15 1
     9    3   16 1
    10    3   17 1
    11    4    5 1
    12    4    6 1
    13    7    8 1
    14    7    9 1
    15    7   11 1
    16   10   11 1
    17   10   19 1
    18   10   20 1
    19   11   18 1
@<TRIPOS>SUBSTRUCTURE
     1 SYM         1 TEMP              0 ****  ****    0 ROOT
