@<TRIPOS>MOLECULE
SYN
   16    16     1     0     0
SMALL
bcc


@<TRIPOS>ATOM
      1 CAF        -0.0200   -0.0330    0.0320 ca        1 SYN     -0.118500
      2 CAD         1.3700   -0.0860   -0.0130 ca        1 SYN     -0.131000
      3 CAC         2.1130   -0.0270    1.1670 ca        1 SYN     -0.127000
      4 CAE         1.4570    0.0850    2.3920 ca        1 SYN     -0.131000
      5 CAG         0.0660    0.1360    2.4420 ca        1 SYN     -0.118500
      6 CAH        -0.6900    0.0740    1.2620 ca        1 SYN     -0.057800
      7 CAB        -2.1440    0.1260    1.2760 ce        1 SYN     -0.113200
      8 CAA        -2.9150   -0.1370    2.3330 c2        1 SYN     -0.209000
      9 H1         -0.6010   -0.0770   -0.9010 ha        1 SYN      0.131500
     10 H2          1.8840   -0.1730   -0.9820 ha        1 SYN      0.131000
     11 H3          3.2110   -0.0680    1.1300 ha        1 SYN      0.131000
     12 H4          2.0390    0.1350    3.3240 ha        1 SYN      0.131000
     13 H5         -0.4420    0.2310    3.4130 ha        1 SYN      0.131500
     14 H6         -2.6040    0.4010    0.3090 ha        1 SYN      0.123000
     15 H8         -2.5170   -0.4280    3.3130 ha        1 SYN      0.113500
     16 H9         -4.0100   -0.0820    2.2760 ha        1 SYN      0.113500
@<TRIPOS>BOND
     1    1    2 ar  
     2    1    6 ar  
     3    1    9 1   
     4    2    3 ar  
     5    2   10 1   
     6    3    4 ar  
     7    3   11 1   
     8    4    5 ar  
     9    4   12 1   
    10    5    6 ar  
    11    5   13 1   
    12    6    7 1   
    13    7    8 2   
    14    7   14 1   
    15    8   15 1   
    16    8   16 1   
@<TRIPOS>SUBSTRUCTURE
     1 SYN         1 TEMP              0 ****  ****    0 ROOT
