@<TRIPOS>MOLECULE
molecule
   16    16     1     0     0
SMALL
bcc


@<TRIPOS>ATOM
      1 CAF          0.0000     0.0000     0.0000 ca         1 SYN      -0.119500
      2 CAD          1.3800     0.0000     0.0000 ca         1 SYN      -0.127500
      3 CAC          2.0740     0.0000     1.1960 ca         1 SYN      -0.128000
      4 CAE          1.3910     0.0030     2.4000 ca         1 SYN      -0.127500
      5 CAG          0.0120     0.0040     2.4130 ca         1 SYN      -0.119500
      6 CAH         -0.6950     0.0030     1.2110 ca         1 SYN      -0.058800
      7 CAB         -2.1730     0.0090     1.2180 ce         1 SYN      -0.115200
      8 CAA         -2.8300     0.0120     2.3690 c2         1 SYN      -0.214000
      9 H1          -0.5430    -0.0000    -0.9370 ha         1 SYN       0.132000
     10 H2           1.9200    -0.0020    -0.9390 ha         1 SYN       0.129000
     11 H3           3.1580    -0.0000     1.1910 ha         1 SYN       0.128000
     12 H4           1.9410     0.0030     3.3340 ha         1 SYN       0.129000
     13 H5          -0.5220     0.0060     3.3560 ha         1 SYN       0.132000
     14 H6          -2.7200     0.0110     0.2830 ha         1 SYN       0.128000
     15 H8          -3.9130     0.0170     2.3750 ha         1 SYN       0.115500
     16 H9          -2.2840     0.0100     3.3050 ha         1 SYN       0.115500
@<TRIPOS>BOND
     1     3     4 ar
     2     3     2 ar
     3     4     5 ar
     4     2     1 ar
     5     5     6 ar
     6     1     6 ar
     7     6     7 1
     8     7     8 2
     9     1     9 1
    10     2    10 1
    11     3    11 1
    12     4    12 1
    13     5    13 1
    14     7    14 1
    15     8    15 1
    16     8    16 1
@<TRIPOS>SUBSTRUCTURE
     1 SYN         1 TEMP              0 ****  ****    0 ROOT
