@<TRIPOS>MOLECULE
SYO
   66    65     1     0     0
SMALL
bcc


@<TRIPOS>ATOM
      1 C1           0.0000     0.0000     0.0000 c3         1 SYO       0.075700
      2 S1           1.8140     0.0000     0.0000 ss         1 SYO      -0.451200
      3 C2          -0.5090     0.0000     1.4430 c3         1 SYO      -0.100400
      4 C3          -2.0170    -0.0000     1.4430 c          1 SYO       0.600100
      5 O3          -2.6210     0.0000     0.3970 o          1 SYO      -0.560100
      6 C4          -2.7700    -0.0010     2.7480 c3         1 SYO      -0.124400
      7 C5          -4.2740    -0.0010     2.4690 c3         1 SYO      -0.021400
      8 C6          -5.0390    -0.0020     3.7940 c3         1 SYO      -0.031400
      9 C7          -6.5430    -0.0010     3.5150 c3         1 SYO      -0.027400
     10 C8          -7.3080    -0.0010     4.8390 c3         1 SYO       0.005900
     11 O23          9.4000    -5.2180    -7.4590 o          1 SYO      -0.725167
     12 P24          9.7500    -5.0110    -8.8820 p5         1 SYO       0.689900
     13 O26          9.0770    -6.1710    -9.7740 o          1 SYO      -0.725167
     14 O27          9.1920    -3.5780    -9.3580 os         1 SYO      -0.484200
     15 C29          8.8270    -1.1890    -9.3990 c3         1 SYO      -0.097000
     16 O29         11.3480    -5.0530    -9.0660 o          1 SYO      -0.725167
     17 C30          9.2980    -1.1210   -10.8540 c3         1 SYO       0.015900
     18 C31          7.3130    -1.3980    -9.3640 c3         1 SYO       0.015900
     19 C32          9.1780     0.1190    -8.6880 c3         1 SYO       0.135100
     20 O33         10.5760     0.3810    -8.8320 oh         1 SYO      -0.531800
     21 C34          8.8380     0.0020    -7.2240 c          1 SYO       0.561100
     22 O35          9.7240    -0.0920    -6.4020 o          1 SYO      -0.620100
     23 N36          7.5490     0.0020    -6.8300 ns         1 SYO      -0.239900
     24 C37          7.2200     0.0010    -5.4040 c3         1 SYO       0.067000
     25 C38          5.6990     0.0020    -5.2300 c3         1 SYO      -0.110400
     26 C39          5.3610     0.0020    -3.7620 c          1 SYO       0.580100
     27 O40          6.2480     0.0010    -2.9350 o          1 SYO      -0.631100
     28 N41          4.0720     0.0010    -3.3680 ns         1 SYO      -0.223900
     29 C42          3.7420     0.0010    -1.9400 c3         1 SYO       0.073000
     30 C43          2.2220     0.0000    -1.7680 c3         1 SYO       0.064700
     31 H1          -0.3610     0.8850    -0.5110 h1         1 SYO       0.041200
     32 H1A         -0.3610    -0.8850    -0.5110 h1         1 SYO       0.041200
     33 H2          -0.1480     0.8850     1.9530 hc         1 SYO       0.044700
     34 H2A         -0.1480    -0.8850     1.9530 hc         1 SYO       0.044700
     35 H4          -2.5080     0.8830     3.3170 hc         1 SYO       0.033700
     36 H4A         -2.5080    -0.8860     3.3160 hc         1 SYO       0.033700
     37 H5          -4.5360    -0.8850     1.9000 hc         1 SYO       0.027200
     38 H5A         -4.5360     0.8840     1.9020 hc         1 SYO       0.027200
     39 H6          -4.7770     0.8820     4.3630 hc         1 SYO       0.011700
     40 H6A         -4.7770    -0.8870     4.3610 hc         1 SYO       0.011700
     41 H7          -6.8050     0.8830     2.9470 hc         1 SYO       0.014200
     42 H7A         -6.8050    -0.8860     2.9470 hc         1 SYO       0.014200
     43 H8          -7.0420     0.8800     5.4100 hc         1 SYO      -0.001633
     44 H8A         -7.0520    -0.8890     5.4050 hc         1 SYO      -0.001633
     45 H8B         -8.3730     0.0050     4.6410 hc         1 SYO      -0.001633
     46 H28         10.5930    -2.2070    -8.7190 h1         1 SYO      -0.008800
     47 H28A         9.1870    -2.4040    -7.6630 h1         1 SYO      -0.008800
     48 H30          8.8960    -1.9640   -11.4030 hc         1 SYO      -0.001633
     49 H30A         8.9500    -0.1980   -11.3030 hc         1 SYO      -0.001633
     50 H30B        10.3800    -1.1520   -10.8850 hc         1 SYO      -0.001633
     51 H31          7.0150    -2.0230   -10.1970 hc         1 SYO      -0.001633
     52 H31A         6.8140    -0.4390    -9.4350 hc         1 SYO      -0.001633
     53 H31B         7.0360    -1.8810    -8.4340 hc         1 SYO      -0.001633
     54 H32          8.6110     0.9320    -9.1270 h1         1 SYO      -0.026300
     55 HO33        10.7280     1.3100    -8.7910 ho         1 SYO       0.354000
     56 HN36         6.8190     0.0570    -7.5120 hn         1 SYO       0.181500
     57 H37          7.6360    -0.8840    -4.9370 h1         1 SYO       0.039200
     58 H37A         7.6360     0.8850    -4.9360 h1         1 SYO       0.039200
     59 H38          5.2830     0.8860    -5.6970 hc         1 SYO       0.027200
     60 H38A         5.2830    -0.8830    -5.6970 hc         1 SYO       0.027200
     61 HN41         3.3400     0.0010    -4.0500 hn         1 SYO       0.169500
     62 H42          4.1590    -0.8830    -1.4730 h1         1 SYO       0.036200
     63 H42A         4.1580     0.8860    -1.4730 h1         1 SYO       0.036200
     64 H43          1.8060    -0.8840    -2.2350 h1         1 SYO       0.031200
     65 H43A         1.8060     0.8850    -2.2340 h1         1 SYO       0.031200
     66 C28          9.5200    -2.3560    -8.6930 c3         1 SYO       0.285400
@<TRIPOS>BOND
     1     1     2 1   
     2     1     3 1   
     3     1    31 1   
     4     1    32 1   
     5     2    30 1   
     6     3     4 1   
     7     3    33 1   
     8     3    34 1   
     9     4     5 2   
    10     4     6 1   
    11     6     7 1   
    12     6    35 1   
    13     6    36 1   
    14     7     8 1   
    15     7    37 1   
    16     7    38 1   
    17     8     9 1   
    18     8    39 1   
    19     8    40 1   
    20     9    10 1   
    21     9    41 1   
    22     9    42 1   
    23    10    43 1   
    24    10    44 1   
    25    10    45 1   
    26    11    12 1   
    27    12    13 1   
    28    12    14 1   
    29    12    16 1   
    30    14    66 1   
    31    15    17 1   
    32    15    18 1   
    33    15    19 1   
    34    15    66 1   
    35    17    48 1   
    36    17    49 1   
    37    17    50 1   
    38    18    51 1   
    39    18    52 1   
    40    18    53 1   
    41    19    20 1   
    42    19    21 1   
    43    19    54 1   
    44    20    55 1   
    45    21    22 2   
    46    21    23 1   
    47    23    24 1   
    48    23    56 1   
    49    24    25 1   
    50    24    57 1   
    51    24    58 1   
    52    25    26 1   
    53    25    59 1   
    54    25    60 1   
    55    26    27 2   
    56    26    28 1   
    57    28    29 1   
    58    28    61 1   
    59    29    30 1   
    60    29    62 1   
    61    29    63 1   
    62    30    64 1   
    63    30    65 1   
    64    46    66 1   
    65    47    66 1   
@<TRIPOS>SUBSTRUCTURE
     1 SYO         1 TEMP              0 ****  ****    0 ROOT
