@<TRIPOS>MOLECULE
SYP
   37    37     1     0     0
SMALL
bcc


@<TRIPOS>ATOM
      1 C1           0.0000     0.0000     0.0000 ca         1 SYP      -0.530600
      2 C2           1.3910     0.0000     0.0000 ca         1 SYP       0.587200
      3 N3           2.0380     0.0000     1.1640 nb         1 SYP      -0.749000
      4 C4           1.3770    -0.0000     2.3050 ca         1 SYP       0.720900
      5 N5           0.0610    -0.0000     2.3470 nb         1 SYP      -0.752000
      6 C6          -0.6590    -0.0000     1.2260 ca         1 SYP       0.588200
      7 N7          -2.0440     0.0010     1.2810 nu         1 SYP      -0.507900
      8 C8          -2.8250     0.0020     0.0400 c3         1 SYP       0.183800
      9 C9          -4.3170     0.0030     0.3780 c3         1 SYP       0.087700
     10 S10         -5.2850     0.0030    -1.1550 sh         1 SYP      -0.395900
     11 N11          2.0940    -0.0010    -1.1940 nu         1 SYP      -0.495900
     12 C12          1.3720    -0.0020    -2.4700 c3         1 SYP       0.147800
     13 C13          2.3760    -0.0030    -3.6240 c3         1 SYP       0.042000
     14 N14          1.6540    -0.0030    -4.8990 ns         1 SYP      -0.201900
     15 C15          2.3370    -0.0040    -6.0600 c          1 SYP       0.570100
     16 C16          1.5960    -0.0050    -7.3720 c3         1 SYP      -0.094400
     17 O17          3.5510    -0.0050    -6.0500 o          1 SYP      -0.641100
     18 C18          2.5990    -0.0050    -8.5270 c3         1 SYP       0.021900
     19 H1          -0.5560     0.0000    -0.9300 ha         1 SYP       0.138000
     20 H4           1.9340    -0.0000     3.2340 h5         1 SYP      -0.007900
     21 HN7         -2.5100    -0.0290     2.1660 hn         1 SYP       0.301800
     22 H8          -2.5870    -0.8830    -0.5380 h1         1 SYP       0.029700
     23 H8A         -2.5850     0.8870    -0.5370 h1         1 SYP       0.029700
     24 H9          -4.5570    -0.8810     0.9570 h1         1 SYP       0.036700
     25 H9A         -4.5560     0.8880     0.9560 h1         1 SYP       0.036700
     26 HS10        -6.5800     0.0050    -0.8620 hs         1 SYP       0.194800
     27 HN11         3.0950     0.0050    -1.1860 hn         1 SYP       0.305800
     28 H12          0.7500     0.8830    -2.5330 h1         1 SYP       0.018200
     29 H12A         0.7500    -0.8860    -2.5320 h1         1 SYP       0.018200
     30 H13          2.9990     0.8810    -3.5610 h1         1 SYP       0.032200
     31 H13A         2.9980    -0.8880    -3.5610 h1         1 SYP       0.032200
     32 HN14         0.6530    -0.0020    -4.9080 hn         1 SYP       0.174500
     33 H16          0.9730     0.8790    -7.4350 hc         1 SYP       0.023700
     34 H16A         0.9740    -0.8900    -7.4340 hc         1 SYP       0.023700
     35 H18          3.2210     0.8790    -8.4650 hc         1 SYP       0.009700
     36 H18A         2.0650    -0.0060    -9.4690 hc         1 SYP       0.009700
     37 H18B         3.2210    -0.8900    -8.4640 hc         1 SYP       0.009700
@<TRIPOS>BOND
     1     1     2 ar  
     2     1     6 ar  
     3     1    19 1   
     4     2     3 ar  
     5     2    11 1   
     6     3     4 ar  
     7     4     5 ar  
     8     4    20 1   
     9     5     6 ar  
    10     6     7 1   
    11     7     8 1   
    12     7    21 1   
    13     8     9 1   
    14     8    22 1   
    15     8    23 1   
    16     9    10 1   
    17     9    24 1   
    18     9    25 1   
    19    10    26 1   
    20    11    12 1   
    21    11    27 1   
    22    12    13 1   
    23    12    28 1   
    24    12    29 1   
    25    13    14 1   
    26    13    30 1   
    27    13    31 1   
    28    14    15 1   
    29    14    32 1   
    30    15    16 1   
    31    15    17 2   
    32    16    18 1   
    33    16    33 1   
    34    16    34 1   
    35    18    35 1   
    36    18    36 1   
    37    18    37 1   
@<TRIPOS>SUBSTRUCTURE
     1 SYP         1 TEMP              0 ****  ****    0 ROOT
