@<TRIPOS>MOLECULE
molecule
   27    27     1     0     0
SMALL
bcc


@<TRIPOS>ATOM
      1 O3           0.0000     0.0000     0.0000 o          1 SYR      -0.548000
      2 C8           1.2150     0.0000     0.0000 c          1 SYR       0.654700
      3 O4           1.8890     0.0000     1.1670 os         1 SYR      -0.440900
      4 C10          1.1620    -0.0020     2.4250 c3         1 SYR       0.148700
      5 C6           1.9530     0.0020    -1.2770 ca         1 SYR      -0.068600
      6 C5           1.2550     0.0020    -2.4870 ca         1 SYR      -0.194500
      7 C4           1.9490     0.0030    -3.6820 ca         1 SYR       0.111600
      8 O2           1.2710     0.0040    -4.8610 os         1 SYR      -0.280900
      9 C7          -0.1210     0.0040    -4.5380 c3         1 SYR       0.100200
     10 C1           3.3500     0.0070    -1.2780 ca         1 SYR      -0.194500
     11 C2           4.0380     0.0040    -2.4760 ca         1 SYR       0.111600
     12 O5           5.3980     0.0050    -2.4780 os         1 SYR      -0.280900
     13 C9           5.8130     0.0050    -1.1100 c3         1 SYR       0.100200
     14 C3           3.3410     0.0040    -3.6810 ca         1 SYR       0.078100
     15 O1           4.0200     0.0040    -4.8570 oh         1 SYR      -0.491100
     16 H101         0.5390     0.8820     2.4830 h1         1 SYR       0.049367
     17 H102         0.5400    -0.8870     2.4810 h1         1 SYR       0.049367
     18 H103         1.8660    -0.0020     3.2480 h1         1 SYR       0.049367
     19 H5           0.1740     0.0700    -2.4890 ha         1 SYR       0.168500
     20 H7C1        -0.3610     0.8970    -3.9730 h1         1 SYR       0.048200
     21 H7C2        -0.7030    -0.0140    -5.4510 h1         1 SYR       0.048200
     22 H7C3        -0.3530    -0.8720    -3.9440 h1         1 SYR       0.048200
     23 H1           3.8920     0.0520    -0.3420 ha         1 SYR       0.168500
     24 H9C1         6.8950    -0.0080    -1.0610 h1         1 SYR       0.048200
     25 H9C2         5.4180    -0.8730    -0.6130 h1         1 SYR       0.048200
     26 H9C3         5.4400     0.8960    -0.6200 h1         1 SYR       0.048200
     27 HA           4.1780    -0.8850    -5.1300 ho         1 SYR       0.420000
@<TRIPOS>BOND
     1     1     2 2
     2     2     3 1
     3     2     5 1
     4     3     4 1
     5     4    16 1
     6     4    17 1
     7     4    18 1
     8     5     6 ar
     9     5    10 ar
    10     6     7 ar
    11     6    19 1
    12     7     8 1
    13     7    14 ar
    14     8     9 1
    15     9    20 1
    16     9    21 1
    17     9    22 1
    18    10    11 ar
    19    10    23 1
    20    11    12 1
    21    11    14 ar
    22    12    13 1
    23    13    24 1
    24    13    25 1
    25    13    26 1
    26    14    15 1
    27    15    27 1
@<TRIPOS>SUBSTRUCTURE
     1 SYR         1 TEMP              0 ****  ****    0 ROOT
