@<TRIPOS>MOLECULE
SYR
   27    27     1     0     0
SMALL
bcc


@<TRIPOS>ATOM
      1 O3         -0.1300    0.0110    0.2360 o         1 SYR     -0.546000
      2 C8          1.0990    0.0070    0.1120 c         1 SYR      0.648700
      3 O4          1.8530    0.0300    1.2570 os        1 SYR     -0.439900
      4 C10         1.1330    0.0560    2.4910 c3        1 SYR      0.127700
      5 C6          1.8820   -0.0190   -1.1320 ca        1 SYR     -0.108600
      6 C5          1.1840   -0.0440   -2.3440 ca        1 SYR     -0.139500
      7 C4          1.9000   -0.0690   -3.5410 ca        1 SYR      0.075100
      8 O2          1.3290   -0.0980   -4.8030 os        1 SYR     -0.323900
      9 C7         -0.0940   -0.0750   -4.8430 c3        1 SYR      0.114200
     10 C1          3.2800   -0.0180   -1.1040 ca        1 SYR     -0.139500
     11 C2          3.9970   -0.0430   -2.3030 ca        1 SYR      0.075100
     12 O5          5.3740   -0.0450   -2.3950 os        1 SYR     -0.323900
     13 C9          6.0800   -0.0190   -1.1590 c3        1 SYR      0.114200
     14 C3          3.3120   -0.0690   -3.5410 ca        1 SYR      0.120100
     15 O1          4.0640   -0.0930   -4.6850 oh        1 SYR     -0.467100
     16 H101        0.4970    0.9720    2.5420 h1        1 SYR      0.051700
     17 H102        0.4960   -0.8570    2.5790 h1        1 SYR      0.051700
     18 H103        1.9390    0.0710    3.2650 h1        1 SYR      0.051700
     19 H5          0.0830   -0.0450   -2.3320 ha        1 SYR      0.164500
     20 H7C1       -0.5150   -0.9780   -4.3370 h1        1 SYR      0.048533
     21 H7C2       -0.3210   -0.0930   -5.9400 h1        1 SYR      0.048533
     22 H7C3       -0.4850    0.8590   -4.3720 h1        1 SYR      0.048533
     23 H1          3.8000    0.0020   -0.1340 ha        1 SYR      0.164500
     24 H9C1        5.8440   -0.9250   -0.5500 h1        1 SYR      0.048533
     25 H9C2        5.8440    0.9110   -0.5870 h1        1 SYR      0.048533
     26 H9C3        7.1540   -0.0260   -1.4790 h1        1 SYR      0.048533
     27 HA          3.4580   -0.1060   -5.4430 ho        1 SYR      0.437000
@<TRIPOS>BOND
     1    1    2 2   
     2    2    3 1   
     3    2    5 1   
     4    3    4 1   
     5    4   16 1   
     6    4   17 1   
     7    4   18 1   
     8    5    6 ar  
     9    5   10 ar  
    10    6    7 ar  
    11    6   19 1   
    12    7    8 1   
    13    7   14 ar  
    14    8    9 1   
    15    9   20 1   
    16    9   21 1   
    17    9   22 1   
    18   10   11 ar  
    19   10   23 1   
    20   11   12 1   
    21   11   14 ar  
    22   12   13 1   
    23   13   24 1   
    24   13   25 1   
    25   13   26 1   
    26   14   15 1   
    27   15   27 1   
@<TRIPOS>SUBSTRUCTURE
     1 SYR         1 TEMP              0 ****  ****    0 ROOT
