@<TRIPOS>MOLECULE
SYY
   29    30     1     0     0
SMALL
bcc


@<TRIPOS>ATOM
      1 S            0.0000     0.0000     0.0000 ss         1 SYY      -0.189800
      2 C1           1.1810     0.0010     2.2240 cc         1 SYY      -0.198000
      3 N1           3.5580    -0.0010     1.6490 ns         1 SYY      -0.011100
      4 O1           3.7910    -0.0020    -1.0360 o          1 SYY      -0.633000
      5 C2           2.2080     0.0000     1.2990 cc         1 SYY       0.008600
      6 O2           2.0200    -0.0030    -2.3810 os         1 SYY      -0.399900
      7 S2           5.5140     1.8970     5.6890 ss         1 SYY      -0.268800
      8 C3           1.7590     0.0000     0.0000 cd         1 SYY      -0.167700
      9 O3           3.0750     0.1460     3.8090 o          1 SYY      -0.616100
     10 C5          -0.0490     0.0010     1.7050 cd         1 SYY       0.033900
     11 C6           2.5800    -0.0020    -1.1520 c          1 SYY       0.781700
     12 C9           2.9090    -0.0040    -3.4990 c3         1 SYY       0.266700
     13 C11          3.9210     0.1280     2.9410 c          1 SYY       0.559100
     14 C12          5.3780     0.2490     3.3050 c3         1 SYY       0.002900
     15 C14          5.5120     0.3800     4.8000 cc         1 SYY       0.025600
     16 C15          5.6490    -0.6370     5.6520 cd         1 SYY      -0.114000
     17 C16          5.7550    -0.2730     6.9830 cd         1 SYY      -0.124000
     18 C17          5.7060     1.0390     7.2120 cc         1 SYY       0.012900
     19 H1           1.3610     0.0020     3.2930 ha         1 SYY       0.198000
     20 HN1          4.2580    -0.1190     0.9430 hn         1 SYY       0.215500
     21 H5          -0.9600     0.0010     2.2910 h4         1 SYY       0.150000
     22 H9           3.5330    -0.8890    -3.4630 h1         1 SYY       0.000700
     23 H9A          3.5330     0.8800    -3.4660 h1         1 SYY       0.000700
     24 H9B          2.3340    -0.0060    -4.4180 h1         1 SYY       0.000700
     25 H12          5.7990     1.1260     2.8260 hc         1 SYY       0.040200
     26 H12A         5.9090    -0.6340     2.9710 hc         1 SYY       0.040200
     27 H15          5.6750    -1.6700     5.3270 ha         1 SYY       0.119000
     28 H16          5.8710    -1.0000     7.7790 ha         1 SYY       0.119000
     29 H17          5.7730     1.5060     8.1880 h4         1 SYY       0.147000
@<TRIPOS>BOND
     1     1     8 1   
     2     1    10 1   
     3     2     5 1   
     4     2    10 2   
     5     2    19 1   
     6     3     5 1   
     7     3    13 1   
     8     3    20 1   
     9     4    11 2   
    10     5     8 2   
    11     6    11 1   
    12     6    12 1   
    13     7    15 1   
    14     7    18 1   
    15     8    11 1   
    16     9    13 2   
    17    10    21 1   
    18    12    22 1   
    19    12    23 1   
    20    12    24 1   
    21    13    14 1   
    22    14    15 1   
    23    14    25 1   
    24    14    26 1   
    25    15    16 2   
    26    16    17 1   
    27    16    27 1   
    28    17    18 2   
    29    17    28 1   
    30    18    29 1   
@<TRIPOS>SUBSTRUCTURE
     1 SYY         1 TEMP              0 ****  ****    0 ROOT
