@<TRIPOS>MOLECULE
molecule
   24    24     1     0     0
SMALL
bcc


@<TRIPOS>ATOM
      1 N            0.0000     0.0000     0.0000 nz         1 SZ1      -0.809600
      2 C1           1.4700     0.0000     0.0000 c3         1 SZ1       0.097500
      3 C2           1.9870     0.0000     1.4530 c3         1 SZ1      -0.095900
      4 C3           3.3670    -0.4540     1.5490 c3         1 SZ1      -0.080900
      5 C4           4.3420     0.4610     0.7810 c3         1 SZ1      -0.087900
      6 C5           4.2790     0.1070    -0.6810 c3         1 SZ1      -0.087900
      7 C6           3.2860     0.9930    -1.4580 c3         1 SZ1      -0.080900
      8 C7           1.9750     1.2390    -0.6870 c3         1 SZ1      -0.095900
      9 HN          -0.3340    -0.8150     0.4750 hn         1 SZ1       0.453467
     10 HNA         -0.3340     0.8190     0.4680 hn         1 SZ1       0.453467
     11 H1           1.8390    -0.8780    -0.5170 hx         1 SZ1       0.121700
     12 H2           1.9220     1.0070     1.8460 hc         1 SZ1       0.061200
     13 H2A          1.3610    -0.6550     2.0460 hc         1 SZ1       0.061200
     14 H3           3.6560    -0.4740     2.5930 hc         1 SZ1       0.067200
     15 H3A          3.4340    -1.4560     1.1420 hc         1 SZ1       0.067200
     16 H4           4.0530     1.4960     0.9170 hc         1 SZ1       0.060450
     17 H4A          5.3500     0.3070     1.1480 hc         1 SZ1       0.060450
     18 H5           3.9730    -0.9270    -0.7760 hc         1 SZ1       0.060450
     19 H5A          5.2650     0.2280    -1.1120 hc         1 SZ1       0.060450
     20 H6           3.7560     1.9480    -1.6590 hc         1 SZ1       0.067200
     21 H6A          3.0510     0.5090    -2.3980 hc         1 SZ1       0.067200
     22 H7           2.1480     2.0060     0.0580 hc         1 SZ1       0.061200
     23 H7A          1.2210     1.5840    -1.3840 hc         1 SZ1       0.061200
     24 HN3         -0.3340    -0.0170    -0.9430 hn         1 SZ1       0.453467
@<TRIPOS>BOND
     1     1     2 1
     2     2     3 1
     3     2     8 1
     4     3     4 1
     5     4     5 1
     6     5     6 1
     7     6     7 1
     8     7     8 1
     9     1     9 1
    10     1    10 1
    11     2    11 1
    12     3    12 1
    13     3    13 1
    14     4    14 1
    15     4    15 1
    16     5    16 1
    17     5    17 1
    18     6    18 1
    19     6    19 1
    20     7    20 1
    21     7    21 1
    22     8    22 1
    23     8    23 1
    24    24     1 1
@<TRIPOS>SUBSTRUCTURE
     1 SZ1         1 TEMP              0 ****  ****    0 ROOT
