@<TRIPOS>MOLECULE
SZ1
   24    24     1     0     0
SMALL
bcc


@<TRIPOS>ATOM
      1 N            0.0000     0.0000     0.0000 nz         1 SZ1       0.076400
      2 C1           1.4700     0.0000     0.0000 c3         1 SZ1      -0.089500
      3 C2           1.9870     0.0000     1.4530 c3         1 SZ1      -0.026400
      4 C3           3.3670    -0.4540     1.5490 c3         1 SZ1      -0.023400
      5 C4           4.3420     0.4610     0.7810 c3         1 SZ1      -0.031900
      6 C5           4.2790     0.1070    -0.6810 c3         1 SZ1      -0.031900
      7 C6           3.2860     0.9930    -1.4580 c3         1 SZ1      -0.023400
      8 C7           1.9750     1.2390    -0.6870 c3         1 SZ1      -0.026400
      9 HN          -0.3340    -0.8150     0.4750 hn         1 SZ1       0.224133
     10 HNA         -0.3340     0.8190     0.4680 hn         1 SZ1       0.224133
     11 H1           1.8390    -0.8780    -0.5170 hx         1 SZ1       0.104700
     12 H2           1.9220     1.0070     1.8460 hc         1 SZ1       0.032200
     13 H2A          1.3610    -0.6550     2.0460 hc         1 SZ1       0.032200
     14 H3           3.6560    -0.4740     2.5930 hc         1 SZ1       0.035450
     15 H3A          3.4340    -1.4560     1.1420 hc         1 SZ1       0.035450
     16 H4           4.0530     1.4960     0.9170 hc         1 SZ1       0.032200
     17 H4A          5.3500     0.3070     1.1480 hc         1 SZ1       0.032200
     18 H5           3.9730    -0.9270    -0.7760 hc         1 SZ1       0.032200
     19 H5A          5.2650     0.2280    -1.1120 hc         1 SZ1       0.032200
     20 H6           3.7560     1.9480    -1.6590 hc         1 SZ1       0.035450
     21 H6A          3.0510     0.5090    -2.3980 hc         1 SZ1       0.035450
     22 H7           2.1480     2.0060     0.0580 hc         1 SZ1       0.032200
     23 H7A          1.2210     1.5840    -1.3840 hc         1 SZ1       0.032200
     24 HN3         -0.3340    -0.0170    -0.9430 hn         1 SZ1       0.224133
@<TRIPOS>BOND
     1     1     2 1   
     2     1     9 1   
     3     1    10 1   
     4     1    24 1   
     5     2     3 1   
     6     2     8 1   
     7     2    11 1   
     8     3     4 1   
     9     3    12 1   
    10     3    13 1   
    11     4     5 1   
    12     4    14 1   
    13     4    15 1   
    14     5     6 1   
    15     5    16 1   
    16     5    17 1   
    17     6     7 1   
    18     6    18 1   
    19     6    19 1   
    20     7     8 1   
    21     7    20 1   
    22     7    21 1   
    23     8    22 1   
    24     8    23 1   
@<TRIPOS>SUBSTRUCTURE
     1 SZ1         1 TEMP              0 ****  ****    0 ROOT
