@<TRIPOS>MOLECULE
SZ3
   22    22     1     0     0
SMALL
bcc


@<TRIPOS>ATOM
      1 N            0.0000     0.0000     0.0000 nz         1 SZ3       0.077400
      2 O            5.4490     1.2490     0.7220 oh         1 SZ3      -0.562800
      3 C1           1.4690     0.0000     0.0000 c3         1 SZ3      -0.087500
      4 C2           1.9790     0.0000     1.4430 c3         1 SZ3      -0.023900
      5 C3           3.5090    -0.0000     1.4420 c3         1 SZ3      -0.035900
      6 C4           4.0190     1.2500     0.7220 c3         1 SZ3       0.190100
      7 C5           3.5100     1.2490    -0.7210 c3         1 SZ3      -0.035900
      8 C6           1.9790     1.2490    -0.7210 c3         1 SZ3      -0.023900
      9 HN          -0.3340    -0.8170     0.4720 hn         1 SZ3       0.224133
     10 HNA         -0.3340     0.8170     0.4720 hn         1 SZ3       0.224133
     11 H1           1.8350    -0.8830    -0.5100 hx         1 SZ3       0.098700
     12 H2           1.6200    -0.8860     1.9520 hc         1 SZ3       0.032700
     13 H2A          1.6200     0.8860     1.9520 hc         1 SZ3       0.032700
     14 H3           3.8690    -0.8840     0.9290 hc         1 SZ3       0.047700
     15 H3A          3.8700     0.0010     2.4640 hc         1 SZ3       0.047700
     16 H4           3.6530     2.1330     1.2320 h1         1 SZ3       0.005700
     17 H5           3.8700     2.1350    -1.2290 hc         1 SZ3       0.047700
     18 H5A          3.8700     0.3630    -1.2290 hc         1 SZ3       0.047700
     19 H6           1.6200     1.2470    -1.7430 hc         1 SZ3       0.032700
     20 H6A          1.6190     2.1330    -0.2080 hc         1 SZ3       0.032700
     21 HN3         -0.3340     0.0270    -0.9430 hn         1 SZ3       0.224133
     22 HO           5.7630     2.0190     1.1660 ho         1 SZ3       0.407000
@<TRIPOS>BOND
     1     1     3 1   
     2     1     9 1   
     3     1    10 1   
     4     1    21 1   
     5     2     6 1   
     6     2    22 1   
     7     3     4 1   
     8     3     8 1   
     9     3    11 1   
    10     4     5 1   
    11     4    12 1   
    12     4    13 1   
    13     5     6 1   
    14     5    14 1   
    15     5    15 1   
    16     6     7 1   
    17     6    16 1   
    18     7     8 1   
    19     7    17 1   
    20     7    18 1   
    21     8    19 1   
    22     8    20 1   
@<TRIPOS>SUBSTRUCTURE
     1 SZ3         1 TEMP              0 ****  ****    0 ROOT
