@<TRIPOS>MOLECULE
SZ4
   22    22     1     0     0
SMALL
bcc


@<TRIPOS>ATOM
      1 N            0.0000     0.0000     0.0000 nz         1 SZ4       0.076400
      2 O            2.8880     2.3710     4.0230 os         1 SZ4      -0.296900
      3 C1           1.4690     0.0000     0.0000 c3         1 SZ4       0.037100
      4 C2           1.9700     0.0000     1.4210 ca         1 SZ4      -0.172300
      5 C3           2.2010    -1.1980     2.0720 ca         1 SZ4      -0.120000
      6 C4           2.6630    -1.2010     3.3760 ca         1 SZ4      -0.029000
      7 C5           2.8930    -0.0070     4.0310 ca         1 SZ4      -0.157000
      8 C6           2.6630     1.1960     3.3800 ca         1 SZ4       0.180100
      9 C7           3.3630     2.2940     5.3680 c3         1 SZ4       0.244700
     10 C8           2.2060     1.1970     2.0710 ca         1 SZ4      -0.123000
     11 HN          -0.3340     0.1910    -0.9240 hn         1 SZ4       0.222467
     12 HNA         -0.3340    -0.8960     0.2960 hn         1 SZ4       0.222467
     13 H1           1.8300     0.8850    -0.5110 hx         1 SZ4       0.082700
     14 H1A          1.8300    -0.8850    -0.5110 hx         1 SZ4       0.082700
     15 H3           2.0210    -2.1360     1.5590 ha         1 SZ4       0.111000
     16 H4           2.8430    -2.1410     3.8840 ha         1 SZ4       0.124000
     17 H5           3.2540    -0.0100     5.0520 ha         1 SZ4       0.141000
     18 H7           2.6520     1.7430     5.9710 h1         1 SZ4       0.009033
     19 H7A          4.3200     1.7870     5.3850 h1         1 SZ4       0.009033
     20 H7B          3.4770     3.2940     5.7690 h1         1 SZ4       0.009033
     21 H8           2.0850     2.1340     1.5400 ha         1 SZ4       0.123000
     22 HN3         -0.3340     0.7360     0.5900 hn         1 SZ4       0.222467
@<TRIPOS>BOND
     1     1     3 1   
     2     1    11 1   
     3     1    12 1   
     4     1    22 1   
     5     2     8 1   
     6     2     9 1   
     7     3     4 1   
     8     3    13 1   
     9     3    14 1   
    10     4     5 ar  
    11     4    10 ar  
    12     5     6 ar  
    13     5    15 1   
    14     6     7 ar  
    15     6    16 1   
    16     7     8 ar  
    17     7    17 1   
    18     8    10 ar  
    19     9    18 1   
    20     9    19 1   
    21     9    20 1   
    22    10    21 1   
@<TRIPOS>SUBSTRUCTURE
     1 SZ4         1 TEMP              0 ****  ****    0 ROOT
