@<TRIPOS>MOLECULE
molecule
   30    32     1     0     0
SMALL
bcc


@<TRIPOS>ATOM
      1 CAD          0.0000     0.0000     0.0000 ca         1 SZ5      -0.085000
      2 CAC          1.3800     0.0000     0.0000 ca         1 SZ5      -0.135500
      3 CAB          2.0740     0.0000     1.1970 ca         1 SZ5      -0.057300
      4 CAA          3.5810    -0.0010     1.1900 c3         1 SZ5      -0.052800
      5 CAG          1.3910     0.0020     2.4000 ca         1 SZ5      -0.135500
      6 CAF          0.0120     0.0040     2.4140 ca         1 SZ5      -0.085000
      7 CAE         -0.6950     0.0020     1.2100 ca         1 SZ5      -0.157900
      8 CAH         -2.1730     0.0040     1.2180 cc         1 SZ5       0.559500
      9 NAI         -2.8020     0.0030     0.0700 nd         1 SZ5      -0.651100
     10 CAJ         -4.1480     0.0040     0.0010 ca         1 SZ5       0.202400
     11 CAO         -4.8170     0.0040    -1.2260 ca         1 SZ5      -0.124000
     12 CAN         -6.1830     0.0050    -1.2560 ca         1 SZ5      -0.092000
     13 CAM         -6.9230     0.0070    -0.0800 ca         1 SZ5      -0.156000
     14 CAL         -6.2930     0.0070     1.1450 ca         1 SZ5      -0.051000
     15 CAK         -4.9000     0.0050     1.1980 ca         1 SZ5      -0.210600
     16 CAP         -4.1710     0.0060     2.4760 c          1 SZ5       0.709100
     17 OAQ         -4.7620     0.0070     3.5400 o          1 SZ5      -0.625500
     18 NAR         -2.8190     0.0000     2.4230 ns         1 SZ5      -0.471400
     19 HAD         -0.5430    -0.0010    -0.9370 ha         1 SZ5       0.144000
     20 HAC          1.9200    -0.0020    -0.9390 ha         1 SZ5       0.138000
     21 HAA1         3.9470    -0.2440     2.1800 hc         1 SZ5       0.048033
     22 HAA2         3.9420     0.9790     0.9020 hc         1 SZ5       0.048033
     23 HAA3         3.9380    -0.7390     0.4820 hc         1 SZ5       0.048033
     24 HAG          1.9410     0.0030     3.3330 ha         1 SZ5       0.138000
     25 HAF         -0.5210     0.0060     3.3570 ha         1 SZ5       0.144000
     26 HAR         -2.2880    -0.0070     3.2720 hn         1 SZ5       0.339500
     27 HAO         -4.2530     0.0020    -2.1510 ha         1 SZ5       0.148000
     28 HAN         -6.6970     0.0050    -2.2100 ha         1 SZ5       0.134000
     29 HAM         -8.0050     0.0080    -0.1260 ha         1 SZ5       0.135000
     30 HAL         -6.8740     0.0090     2.0590 ha         1 SZ5       0.154000
@<TRIPOS>BOND
     1     1     2 ar
     2     1     7 ar
     3     2     3 ar
     4     3     4 1
     5     3     5 ar
     6     5     6 ar
     7     6     7 ar
     8     7     8 1
     9     8     9 2
    10     8    18 1
    11     9    10 1
    12    10    11 ar
    13    10    15 ar
    14    11    12 ar
    15    12    13 ar
    16    13    14 ar
    17    14    15 ar
    18    15    16 1
    19    16    17 2
    20    16    18 1
    21     1    19 1
    22     2    20 1
    23     4    21 1
    24     4    22 1
    25     4    23 1
    26     5    24 1
    27     6    25 1
    28    18    26 1
    29    11    27 1
    30    12    28 1
    31    13    29 1
    32    14    30 1
@<TRIPOS>SUBSTRUCTURE
     1 SZ5         1 TEMP              0 ****  ****    0 ROOT
