@<TRIPOS>MOLECULE
SZ6
   62    65     1     0     0
SMALL
bcc


@<TRIPOS>ATOM
      1 C8           0.0000     0.0000     0.0000 c3         1 SZ6       0.064200
      2 C2           1.5070     0.0000     0.0000 ca         1 SZ6      -0.319900
      3 C1           2.2150     0.0000     1.1880 ca         1 SZ6       0.446200
      4 N6           3.5390     0.0000     1.1510 nb         1 SZ6      -0.609000
      5 C5           4.1890     0.0010     0.0010 ca         1 SZ6       0.601000
      6 Cl7          5.9240     0.0010     0.0130 cl         1 SZ6      -0.047000
      7 N4           3.5550     0.0020    -1.1540 nb         1 SZ6      -0.592000
      8 C3           2.2240    -0.0050    -1.1990 cp         1 SZ6       0.483800
      9 C9           1.5140    -0.0100    -2.5010 cp         1 SZ6      -0.160500
     10 C14          0.4420     0.8560    -2.7160 ca         1 SZ6      -0.067500
     11 C13         -0.2140     0.8490    -3.9270 ca         1 SZ6      -0.099000
     12 C10          1.9220    -0.8770    -3.5150 ca         1 SZ6      -0.067500
     13 C11          1.2620    -0.8810    -4.7240 ca         1 SZ6      -0.099000
     14 C12          0.1890    -0.0200    -4.9340 ca         1 SZ6      -0.057400
     15 N15         -0.4790    -0.0270    -6.1600 n          1 SZ6      -0.014000
     16 C16         -0.5090     1.0890    -6.9170 c          1 SZ6       0.609700
     17 O19         -0.0210     2.1210    -6.4980 o          1 SZ6      -0.609100
     18 C18         -1.1320     1.0570    -8.2500 ca         1 SZ6      -0.207600
     19 C28         -2.2620     0.2660    -8.4780 ca         1 SZ6      -0.097000
     20 C29         -2.8400     0.2380    -9.7150 ca         1 SZ6      -0.181000
     21 C30         -2.3100     0.9940   -10.7560 ca         1 SZ6       0.188100
     22 O33         -2.8920     0.9580   -11.9820 oh         1 SZ6      -0.501100
     23 C31         -1.1900     1.7840   -10.5470 ca         1 SZ6      -0.245000
     24 C32         -0.5980     1.8250    -9.2960 ca         1 SZ6       0.233100
     25 O34          0.4950     2.6000    -9.0840 oh         1 SZ6      -0.448100
     26 C17         -1.1470    -1.2450    -6.6240 c3         1 SZ6       0.015300
     27 C20         -2.2230    -1.6320    -5.6430 ca         1 SZ6      -0.104300
     28 C25         -3.4590    -1.0130    -5.6910 ca         1 SZ6      -0.096500
     29 C24         -4.4450    -1.3690    -4.7910 ca         1 SZ6      -0.077000
     30 C21         -1.9770    -2.6090    -4.6970 ca         1 SZ6      -0.096500
     31 C22         -2.9640    -2.9650    -3.7970 ca         1 SZ6      -0.077000
     32 C23         -4.1970    -2.3430    -3.8420 ca         1 SZ6      -0.128300
     33 C26         -5.2730    -2.7300    -2.8600 c3         1 SZ6       0.112300
     34 N27         -6.0720    -3.8230    -3.4180 ns         1 SZ6      -0.175900
     35 C35         -7.0990    -4.3360    -2.7110 c          1 SZ6       0.511100
     36 O37         -7.3600    -3.8930    -1.6130 o          1 SZ6      -0.598100
     37 C36         -7.9220    -5.4610    -3.2840 c3         1 SZ6       0.338900
     38 F39         -7.0800    -6.5220    -3.6360 f          1 SZ6      -0.206800
     39 F38         -8.8460    -5.8970    -2.3290 f          1 SZ6      -0.206800
     40 H81C        -0.3610    -0.3890     0.9440 hc         1 SZ6       0.017367
     41 H82C        -0.3610     1.0120    -0.1350 hc         1 SZ6       0.017367
     42 H83C        -0.3610    -0.6230    -0.8090 hc         1 SZ6       0.017367
     43 H1           1.6930    -0.0010     2.1370 h4         1 SZ6      -0.008900
     44 H14          0.1270     1.5340    -1.9320 ha         1 SZ6       0.116500
     45 H10          2.7570    -1.5480    -3.3520 ha         1 SZ6       0.116500
     46 H13         -1.0480     1.5190    -4.0940 ha         1 SZ6       0.115000
     47 H11          1.5770    -1.5560    -5.5100 ha         1 SZ6       0.115000
     48 H171        -1.5920    -1.0650    -7.5950 h1         1 SZ6       0.061700
     49 H172        -0.4230    -2.0470    -6.7010 h1         1 SZ6       0.061700
     50 H28         -2.6810    -0.3250    -7.6720 ha         1 SZ6       0.155000
     51 H29         -3.7160    -0.3760    -9.8870 ha         1 SZ6       0.119000
     52 H33         -2.5030     0.2700   -12.4950 ho         1 SZ6       0.409000
     53 H31         -0.7820     2.3720   -11.3600 ha         1 SZ6       0.127000
     54 H34          0.4760     3.3380    -9.6700 ho         1 SZ6       0.406000
     55 H25         -3.6540    -0.2500    -6.4350 ha         1 SZ6       0.117500
     56 H21         -1.0100    -3.0970    -4.6610 ha         1 SZ6       0.117500
     57 H24         -5.4120    -0.8830    -4.8280 ha         1 SZ6       0.112000
     58 H22         -2.7700    -3.7300    -3.0540 ha         1 SZ6       0.112000
     59 H261        -5.9110    -1.8760    -2.6690 h1         1 SZ6       0.034200
     60 H262        -4.8150    -3.0540    -1.9330 h1         1 SZ6       0.034200
     61 H27         -5.8460    -4.2010    -4.3160 hn         1 SZ6       0.180500
     62 H36         -8.4490    -5.1110    -4.1640 h2         1 SZ6       0.034700
@<TRIPOS>BOND
     1     1     2 1   
     2     1    40 1   
     3     1    41 1   
     4     1    42 1   
     5     2     3 ar  
     6     2     8 ar  
     7     3     4 ar  
     8     3    43 1   
     9     4     5 ar  
    10     5     6 1   
    11     5     7 ar  
    12     7     8 ar  
    13     8     9 1   
    14     9    10 ar  
    15     9    12 ar  
    16    10    11 ar  
    17    10    44 1   
    18    11    14 ar  
    19    11    46 1   
    20    12    13 ar  
    21    12    45 1   
    22    13    14 ar  
    23    13    47 1   
    24    14    15 1   
    25    15    16 1   
    26    15    26 1   
    27    16    17 2   
    28    16    18 1   
    29    18    19 ar  
    30    18    24 ar  
    31    19    20 ar  
    32    19    50 1   
    33    20    21 ar  
    34    20    51 1   
    35    21    22 1   
    36    21    23 ar  
    37    22    52 1   
    38    23    24 ar  
    39    23    53 1   
    40    24    25 1   
    41    25    54 1   
    42    26    27 1   
    43    26    48 1   
    44    26    49 1   
    45    27    28 ar  
    46    27    30 ar  
    47    28    29 ar  
    48    28    55 1   
    49    29    32 ar  
    50    29    57 1   
    51    30    31 ar  
    52    30    56 1   
    53    31    32 ar  
    54    31    58 1   
    55    32    33 1   
    56    33    34 1   
    57    33    59 1   
    58    33    60 1   
    59    34    35 1   
    60    34    61 1   
    61    35    36 2   
    62    35    37 1   
    63    37    38 1   
    64    37    39 1   
    65    37    62 1   
@<TRIPOS>SUBSTRUCTURE
     1 SZ6         1 TEMP              0 ****  ****    0 ROOT
