@<TRIPOS>MOLECULE
molecule
   62    65     1     0     0
SMALL
bcc


@<TRIPOS>ATOM
      1 C8           0.0000     0.0000     0.0000 c3         1 SZ6      -0.041800
      2 C2           1.5070     0.0000     0.0000 ca         1 SZ6      -0.326900
      3 C1           2.2150     0.0000     1.1880 ca         1 SZ6       0.471200
      4 N6           3.5390     0.0000     1.1510 nb         1 SZ6      -0.728000
      5 C5           4.1890     0.0010     0.0010 ca         1 SZ6       0.771000
      6 Cl7          5.9240     0.0010     0.0130 cl         1 SZ6      -0.106000
      7 N4           3.5550     0.0020    -1.1540 nb         1 SZ6      -0.719000
      8 C3           2.2240    -0.0050    -1.1990 cp         1 SZ6       0.534800
      9 C9           1.5140    -0.0100    -2.5010 cp         1 SZ6      -0.161500
     10 C14          0.4420     0.8560    -2.7160 ca         1 SZ6      -0.088000
     11 C13         -0.2140     0.8490    -3.9270 ca         1 SZ6      -0.131000
     12 C10          1.9220    -0.8770    -3.5150 ca         1 SZ6      -0.088000
     13 C11          1.2620    -0.8810    -4.7240 ca         1 SZ6      -0.131000
     14 C12          0.1890    -0.0200    -4.9340 ca         1 SZ6       0.077600
     15 N15         -0.4790    -0.0270    -6.1600 n          1 SZ6      -0.396000
     16 C16         -0.5090     1.0890    -6.9170 c          1 SZ6       0.684700
     17 O19         -0.0210     2.1210    -6.4980 o          1 SZ6      -0.561100
     18 C18         -1.1320     1.0570    -8.2500 ca         1 SZ6      -0.185600
     19 C28         -2.2620     0.2660    -8.4780 ca         1 SZ6      -0.099000
     20 C29         -2.8400     0.2380    -9.7150 ca         1 SZ6      -0.196000
     21 C30         -2.3100     0.9940   -10.7560 ca         1 SZ6       0.166100
     22 O33         -2.8920     0.9580   -11.9820 oh         1 SZ6      -0.520100
     23 C31         -1.1900     1.7840   -10.5470 ca         1 SZ6      -0.249000
     24 C32         -0.5980     1.8250    -9.2960 ca         1 SZ6       0.204100
     25 O34          0.4950     2.6000    -9.0840 oh         1 SZ6      -0.468100
     26 C17         -1.1470    -1.2450    -6.6240 c3         1 SZ6       0.108300
     27 C20         -2.2230    -1.6320    -5.6430 ca         1 SZ6      -0.103300
     28 C25         -3.4590    -1.0130    -5.6910 ca         1 SZ6      -0.119000
     29 C24         -4.4450    -1.3690    -4.7910 ca         1 SZ6      -0.108500
     30 C21         -1.9770    -2.6090    -4.6970 ca         1 SZ6      -0.119000
     31 C22         -2.9640    -2.9650    -3.7970 ca         1 SZ6      -0.108500
     32 C23         -4.1970    -2.3430    -3.8420 ca         1 SZ6      -0.117300
     33 C26         -5.2730    -2.7300    -2.8600 c3         1 SZ6       0.161300
     34 N27         -6.0720    -3.8230    -3.4180 ns         1 SZ6      -0.574900
     35 C35         -7.0990    -4.3360    -2.7110 c          1 SZ6       0.606100
     36 O37         -7.3600    -3.8930    -1.6130 o          1 SZ6      -0.561100
     37 C36         -7.9220    -5.4610    -3.2840 c3         1 SZ6       0.333900
     38 F39         -7.0800    -6.5220    -3.6360 f          1 SZ6      -0.220800
     39 F38         -8.8460    -5.8970    -2.3290 f          1 SZ6      -0.220800
     40 H81C        -0.3610    -0.3890     0.9440 hc         1 SZ6       0.050700
     41 H82C        -0.3610     1.0120    -0.1350 hc         1 SZ6       0.050700
     42 H83C        -0.3610    -0.6230    -0.8090 hc         1 SZ6       0.050700
     43 H1           1.6930    -0.0010     2.1370 h4         1 SZ6       0.037100
     44 H14          0.1270     1.5340    -1.9320 ha         1 SZ6       0.144500
     45 H10          2.7570    -1.5480    -3.3520 ha         1 SZ6       0.144500
     46 H13         -1.0480     1.5190    -4.0940 ha         1 SZ6       0.143000
     47 H11          1.5770    -1.5560    -5.5100 ha         1 SZ6       0.143000
     48 H171        -1.5920    -1.0650    -7.5950 h1         1 SZ6       0.078200
     49 H172        -0.4230    -2.0470    -6.7010 h1         1 SZ6       0.078200
     50 H28         -2.6810    -0.3250    -7.6720 ha         1 SZ6       0.167000
     51 H29         -3.7160    -0.3760    -9.8870 ha         1 SZ6       0.146000
     52 H33         -2.5030     0.2700   -12.4950 ho         1 SZ6       0.428000
     53 H31         -0.7820     2.3720   -11.3600 ha         1 SZ6       0.151000
     54 H34          0.4760     3.3380    -9.6700 ho         1 SZ6       0.429000
     55 H25         -3.6540    -0.2500    -6.4350 ha         1 SZ6       0.139500
     56 H21         -1.0100    -3.0970    -4.6610 ha         1 SZ6       0.139500
     57 H24         -5.4120    -0.8830    -4.8280 ha         1 SZ6       0.139500
     58 H22         -2.7700    -3.7300    -3.0540 ha         1 SZ6       0.139500
     59 H261        -5.9110    -1.8760    -2.6690 h1         1 SZ6       0.064200
     60 H262        -4.8150    -3.0540    -1.9330 h1         1 SZ6       0.064200
     61 H27         -5.8460    -4.2010    -4.3160 hn         1 SZ6       0.323500
     62 H36         -8.4490    -5.1110    -4.1640 h2         1 SZ6       0.076700
@<TRIPOS>BOND
     1     1     2 1
     2     2     3 ar
     3     2     8 ar
     4     3     4 ar
     5     4     5 ar
     6     5     6 1
     7     5     7 ar
     8     7     8 ar
     9     8     9 1
    10     9    10 ar
    11     9    12 ar
    12    10    11 ar
    13    11    14 ar
    14    12    13 ar
    15    13    14 ar
    16    14    15 1
    17    15    16 1
    18    15    26 1
    19    16    17 2
    20    16    18 1
    21    18    19 ar
    22    18    24 ar
    23    19    20 ar
    24    20    21 ar
    25    21    22 1
    26    21    23 ar
    27    23    24 ar
    28    24    25 1
    29    26    27 1
    30    27    28 ar
    31    27    30 ar
    32    28    29 ar
    33    29    32 ar
    34    30    31 ar
    35    31    32 ar
    36    32    33 1
    37    33    34 1
    38    34    35 1
    39    35    36 2
    40    35    37 1
    41    37    38 1
    42    37    39 1
    43     1    40 1
    44     1    41 1
    45     1    42 1
    46     3    43 1
    47    10    44 1
    48    12    45 1
    49    11    46 1
    50    13    47 1
    51    26    48 1
    52    26    49 1
    53    19    50 1
    54    20    51 1
    55    22    52 1
    56    23    53 1
    57    25    54 1
    58    28    55 1
    59    30    56 1
    60    29    57 1
    61    31    58 1
    62    33    59 1
    63    33    60 1
    64    34    61 1
    65    37    62 1
@<TRIPOS>SUBSTRUCTURE
     1 SZ6         1 TEMP              0 ****  ****    0 ROOT
