@<TRIPOS>MOLECULE
molecule
   26    26     1     0     0
SMALL
bcc


@<TRIPOS>ATOM
      1 C1           0.0000     0.0000     0.0000 c3         1 SZ8       0.064500
      2 N1          -0.5100     0.8330    -1.0970 nz         1 SZ8      -0.872600
      3 O1           0.2970     1.5520     4.3690 os         1 SZ8      -0.440900
      4 C2           1.5440     0.0000     0.0000 c3         1 SZ8       0.127800
      5 N2           1.9180     0.0000     1.4380 n3         1 SZ8      -0.652600
      6 C3           3.2900     0.4910     1.6250 c3         1 SZ8       0.135100
      7 C4           0.9340     0.9170     2.0710 c3         1 SZ8       0.097500
      8 C5           0.8250     0.6330     3.5460 c          1 SZ8       0.608100
      9 C6           0.2230     1.2100     5.7790 c3         1 SZ8       0.113700
     10 C7          -0.4010     0.6030     1.3620 c3         1 SZ8      -0.088400
     11 H1          -0.3740    -1.0130    -0.0850 hx         1 SZ8       0.133700
     12 HN1         -0.8860    -0.0860    -1.2260 hn         1 SZ8       0.481133
     13 HN1A         0.1770     1.1020    -1.7730 hn         1 SZ8       0.481133
     14 H2           1.9200    -0.8920    -0.4870 h1         1 SZ8       0.071200
     15 H2A          1.9200     0.8920    -0.4870 h1         1 SZ8       0.071200
     16 H3           3.9500    -0.0060     0.9240 h1         1 SZ8       0.059700
     17 H3A          3.3170     1.5600     1.4510 h1         1 SZ8       0.059700
     18 H3B          3.6140     0.2810     2.6370 h1         1 SZ8       0.059700
     19 H4           1.2170     1.9480     1.8990 h1         1 SZ8       0.067700
     20 H6           0.7350     2.1600     5.6840 h1         1 SZ8       0.087033
     21 H6A          0.8540     0.3820     6.0800 h1         1 SZ8       0.087033
     22 H6B         -0.7690     1.2690     6.2100 h1         1 SZ8       0.087033
     23 H7          -0.9710     1.5130     1.2160 hc         1 SZ8       0.088200
     24 H7A         -0.9710    -0.1170     1.9370 hc         1 SZ8       0.088200
     25 O2           1.2130    -0.4230     3.9890 o          1 SZ8      -0.496000
     26 H13         -1.1800     1.5240    -0.8220 hn         1 SZ8       0.481133
@<TRIPOS>BOND
     1     1     2 1
     2     1     4 1
     3     1    10 1
     4     3     8 1
     5     3     9 1
     6     4     5 1
     7     5     6 1
     8     5     7 1
     9    25     8 2
    10     7     8 1
    11     7    10 1
    12     1    11 1
    13     2    12 1
    14     2    13 1
    15     4    14 1
    16     4    15 1
    17     6    16 1
    18     6    17 1
    19     6    18 1
    20     7    19 1
    21     9    20 1
    22     9    21 1
    23     9    22 1
    24    10    23 1
    25    10    24 1
    26    26     2 1
@<TRIPOS>SUBSTRUCTURE
     1 SZ8         1 TEMP              0 ****  ****    0 ROOT
