@<TRIPOS>MOLECULE
SZ8
   26    26     1     0     0
SMALL
bcc


@<TRIPOS>ATOM
      1 C1           0.0000     0.0000     0.0000 c3         1 SZ8      -0.079500
      2 N1          -0.5100     0.8330    -1.0970 nz         1 SZ8      -0.040600
      3 O1           0.2970     1.5520     4.3690 os         1 SZ8      -0.428900
      4 C2           1.5440     0.0000     0.0000 c3         1 SZ8       0.145800
      5 N2           1.9180     0.0000     1.4380 n3         1 SZ8      -0.484600
      6 C3           3.2900     0.4910     1.6250 c3         1 SZ8       0.180100
      7 C4           0.9340     0.9170     2.0710 c3         1 SZ8       0.067500
      8 C5           0.8250     0.6330     3.5460 c          1 SZ8       0.668100
      9 C6           0.2230     1.2100     5.7790 c3         1 SZ8       0.232700
     10 C7          -0.4010     0.6030     1.3620 c3         1 SZ8      -0.018400
     11 H1          -0.3740    -1.0130    -0.0850 hx         1 SZ8       0.109700
     12 HN1         -0.8860    -0.0860    -1.2260 hn         1 SZ8       0.262133
     13 HN1A         0.1770     1.1020    -1.7730 hn         1 SZ8       0.262133
     14 H2           1.9200    -0.8920    -0.4870 h1         1 SZ8       0.035700
     15 H2A          1.9200     0.8920    -0.4870 h1         1 SZ8       0.035700
     16 H3           3.9500    -0.0060     0.9240 h1         1 SZ8       0.022033
     17 H3A          3.3170     1.5600     1.4510 h1         1 SZ8       0.022033
     18 H3B          3.6140     0.2810     2.6370 h1         1 SZ8       0.022033
     19 H4           1.2170     1.9480     1.8990 h1         1 SZ8       0.039700
     20 H6           0.7350     2.1600     5.6840 h1         1 SZ8       0.037033
     21 H6A          0.8540     0.3820     6.0800 h1         1 SZ8       0.037033
     22 H6B         -0.7690     1.2690     6.2100 h1         1 SZ8       0.037033
     23 H7          -0.9710     1.5130     1.2160 hc         1 SZ8       0.051200
     24 H7A         -0.9710    -0.1170     1.9370 hc         1 SZ8       0.051200
     25 O2           1.2130    -0.4230     3.9890 o          1 SZ8      -0.530000
     26 H13         -1.1800     1.5240    -0.8220 hn         1 SZ8       0.262133
@<TRIPOS>BOND
     1     1     2 1   
     2     1     4 1   
     3     1    10 1   
     4     1    11 1   
     5     2    12 1   
     6     2    13 1   
     7     2    26 1   
     8     3     8 1   
     9     3     9 1   
    10     4     5 1   
    11     4    14 1   
    12     4    15 1   
    13     5     6 1   
    14     5     7 1   
    15     6    16 1   
    16     6    17 1   
    17     6    18 1   
    18     7     8 1   
    19     7    10 1   
    20     7    19 1   
    21     8    25 2   
    22     9    20 1   
    23     9    21 1   
    24     9    22 1   
    25    10    23 1   
    26    10    24 1   
@<TRIPOS>SUBSTRUCTURE
     1 SZ8         1 TEMP              0 ****  ****    0 ROOT
