@<TRIPOS>MOLECULE
SZ9
   21    21     1     0     0
SMALL
bcc


@<TRIPOS>ATOM
      1 N           0.1530    0.4830   -0.1400 n4        1 SZ9     -0.848600
      2 O           2.6930   -0.1120    3.5660 os        1 SZ9     -0.332800
      3 C2          2.8210    1.2580    3.2680 cc        1 SZ9      0.311000
      4 C3          2.4140    1.4890    1.9690 cd        1 SZ9     -0.274300
      5 C4          2.0120    0.2050    1.4250 cd        1 SZ9     -0.364600
      6 C5          1.5640   -0.0160    0.0510 c3        1 SZ9      0.220100
      7 C6          2.2020   -0.7390    2.4300 cc        1 SZ9      0.359000
      8 C7          2.0210   -2.1900    2.5200 c3        1 SZ9     -0.162400
      9 HN          0.1020    1.4710    0.1280 hn        1 SZ9      0.456467
     10 HNA        -0.1340    0.3790   -1.1160 hn        1 SZ9      0.456467
     11 H1          2.7440    1.9500    5.2830 hc        1 SZ9      0.080033
     12 H1A         4.4060    1.8370    4.5640 hc        1 SZ9      0.080033
     13 H1B         3.2840    3.1770    4.0450 hc        1 SZ9      0.080033
     14 H3          2.4200    2.4360    1.4380 ha        1 SZ9      0.170000
     15 H5          2.2130    0.5540   -0.6790 hx        1 SZ9      0.111200
     16 H5A         1.5730   -1.1120   -0.2200 hx        1 SZ9      0.111200
     17 H7          1.6380   -2.5970    1.5530 hc        1 SZ9      0.081033
     18 H7A         2.9990   -2.6840    2.7600 hc        1 SZ9      0.081033
     19 H7B         1.3000   -2.4430    3.3400 hc        1 SZ9      0.081033
     20 HN3        -0.4890   -0.0440    0.4600 hn        1 SZ9      0.456467
     21 C1          3.3380    2.1020    4.3460 c3        1 SZ9     -0.151400
@<TRIPOS>BOND
     1    1    6 1
     2    1    9 1
     3    1   10 1
     4    1   20 1
     5    2    3 1
     6    2    7 1
     7    3    4 2
     8    3   21 1
     9    4    5 1
    10    4   14 1
    11    5    6 1
    12    5    7 2
    13    6   15 1
    14    6   16 1
    15    7    8 1
    16    8   17 1
    17    8   18 1
    18    8   19 1
    19   11   21 1
    20   12   21 1
    21   13   21 1
@<TRIPOS>SUBSTRUCTURE
     1 SZ9         1 TEMP              0 ****  ****    0 ROOT
