@<TRIPOS>MOLECULE
SZC
   46    50     1     0     0
SMALL
bcc


@<TRIPOS>ATOM
      1 C1           0.0000     0.0000     0.0000 ca         1 SZC      -0.154000
      2 C2           6.0120     0.0010     2.8330 ca         1 SZC      -0.089000
      3 C3           4.8430     0.0000     4.9440 ca         1 SZC      -0.089000
      4 C4           7.2160     0.0010     3.5070 ca         1 SZC      -0.040500
      5 C5           6.0540     0.0000     5.6070 ca         1 SZC      -0.040500
      6 C6           1.3660     0.0000     0.0000 ca         1 SZC       0.024000
      7 C7          -0.7080    -0.0010     1.1940 ca         1 SZC       0.027000
      8 C8           4.8150    -0.0000     3.5490 ca         1 SZC       0.016000
      9 C9           7.2370     0.0000     4.8910 ca         1 SZC      -0.207000
     10 C10          2.0640     0.0000     1.2130 ca         1 SZC      -0.098000
     11 C11          1.3460    -0.0000     2.4230 ca         1 SZC      -0.163000
     12 C12         -0.0420    -0.0000     2.4010 ca         1 SZC      -0.502000
     13 C13          3.5210     0.0010     2.8330 c2         1 SZC      -0.148000
     14 C14         -4.7910    -2.4060     4.6550 c3         1 SZC      -0.136000
     15 C15         -3.4410    -3.2060     4.9490 c3         1 SZC      -0.146000
     16 C16         -4.6150    -1.7880     3.1930 c3         1 SZC      -0.094000
     17 C17         -2.6710    -3.0440     3.8350 DU         1 SZC      -0.176000
     18 C18         -3.1490    -1.6020     3.1610 c3         1 SZC      -0.330000
     19 C19          8.5430    -0.0090     5.6420 c3         1 SZC       0.412000
     20 N20          3.3810     0.0010     1.5300 n2         1 SZC      -0.075000
     21 N21          2.2900     0.0000     3.4310 na         1 SZC       0.330000
     22 N22         -2.4950    -0.4910     3.8540 n7         1 SZC      -0.433000
     23 O23         -0.3270     0.3340     5.0800 o          1 SZC      -0.853500
     24 O24         -0.3010    -1.8220     4.3960 o          1 SZC      -0.853500
     25 F25          9.4310    -0.8240     5.0010 f          1 SZC      -0.130667
     26 F26          9.0460     1.2590     5.6960 f          1 SZC      -0.130667
     27 F27          8.3350    -0.4700     6.9100 f          1 SZC      -0.130667
     28 S28         -0.7900    -0.5080     3.9760 s6         1 SZC       2.210000
     29 H1          -0.5420     0.0000    -0.9380 ha         1 SZC       0.114000
     30 H2           5.9980     0.0010     1.7500 ha         1 SZC       0.123000
     31 H3           3.9170     0.0000     5.5070 ha         1 SZC       0.123000
     32 H4           8.1470     0.0010     2.9530 ha         1 SZC       0.120000
     33 H5           6.0780     0.0010     6.6900 ha         1 SZC       0.120000
     34 H6           1.9070     0.0010    -0.9380 ha         1 SZC       0.110000
     35 H7          -1.7910    -0.0010     1.1820 ha         1 SZC       0.123000
     36 H14A        -4.9210    -1.6140     5.3820 hc         1 SZC       0.060000
     37 H15         -3.6560    -4.2560     5.1050 hc         1 SZC       0.076000
     38 H15A        -2.9400    -2.7870     5.8130 hc         1 SZC       0.076000
     39 H16         -4.9350    -2.4900     2.4320 hc         1 SZC       0.078000
     40 H16A        -5.1300    -0.8390     3.1070 hc         1 SZC       0.078000
     41 H17         -1.6240    -2.9990     4.1090 ha         1 SZC       0.130000
     42 H17A        -2.8470    -3.8560     3.1390 ha         1 SZC       0.130000
     43 H18         -2.6420    -2.4860     3.5290 DU         1 SZC       0.243000
     44 HN21         2.1010     0.0230     4.4130 hn         1 SZC       0.114000
     45 HN22        -3.0430     0.2610     4.2220 hn         1 SZC       0.123000
     46 H14         -5.6370    -3.0830     4.6740 hc         1 SZC       0.060000
@<TRIPOS>BOND
     1     1     6 1   
     2     1     7 1   
     3     1    29 1   
     4     2     4 1   
     5     2     8 1   
     6     2    30 1   
     7     3     5 1   
     8     3     8 1   
     9     3    31 1   
    10     4     9 1   
    11     4    32 1   
    12     5     9 1   
    13     5    33 1   
    14     6    10 1   
    15     6    34 1   
    16     7    12 1   
    17     7    35 1   
    18     8    13 1   
    19     9    19 1   
    20    10    11 1   
    21    10    20 1   
    22    11    12 1   
    23    11    21 1   
    24    12    28 1   
    25    13    20 1   
    26    13    21 1   
    27    14    15 1   
    28    14    16 1   
    29    14    36 1   
    30    14    46 1   
    31    15    17 1   
    32    15    37 1   
    33    15    38 1   
    34    16    18 1   
    35    16    39 1   
    36    16    40 1   
    37    17    18 1   
    38    17    41 1   
    39    17    42 1   
    40    17    43 1   
    41    18    22 1   
    42    18    43 1   
    43    19    25 1   
    44    19    26 1   
    45    19    27 1   
    46    21    44 1   
    47    22    28 1   
    48    22    45 1   
    49    23    28 1   
    50    24    28 1   
@<TRIPOS>SUBSTRUCTURE
     1 SZC         1 TEMP              0 ****  ****    0 ROOT
