@<TRIPOS>MOLECULE
molecule
   46    49     1     0     0
SMALL
bcc


@<TRIPOS>ATOM
      1 C1           0.0000     0.0000     0.0000 ca         1 SZC      -0.172000
      2 C2           6.0120     0.0010     2.8330 ca         1 SZC      -0.104500
      3 C3           4.8430     0.0000     4.9440 ca         1 SZC      -0.104500
      4 C4           7.2160     0.0010     3.5070 ca         1 SZC      -0.083000
      5 C5           6.0540     0.0000     5.6070 ca         1 SZC      -0.083000
      6 C6           1.3660     0.0000     0.0000 ca         1 SZC      -0.012000
      7 C7          -0.7080    -0.0010     1.1940 ca         1 SZC       0.001000
      8 C8           4.8150    -0.0000     3.5490 ca         1 SZC      -0.076900
      9 C9           7.2370     0.0000     4.8910 ca         1 SZC      -0.183300
     10 C10          2.0640     0.0000     1.2130 ca         1 SZC       0.081400
     11 C11          1.3460    -0.0000     2.4230 ca         1 SZC      -0.031200
     12 C12         -0.0420    -0.0000     2.4010 ca         1 SZC      -0.216500
     13 C13          3.5210     0.0010     2.8330 cc         1 SZC       0.478400
     14 C14         -4.7910    -2.4060     4.6550 c3         1 SZC      -0.120900
     15 C15         -3.4410    -3.2060     4.9490 c3         1 SZC      -0.120900
     16 C16         -4.6150    -1.7880     3.1930 c3         1 SZC      -0.119900
     17 C17         -2.6710    -3.0440     3.8350 c3         1 SZC      -0.119900
     18 C18         -3.1490    -1.6020     3.1610 c3         1 SZC      -0.045500
     19 C19          8.5430    -0.0090     5.6420 c3         1 SZC       0.696200
     20 N20          3.3810     0.0010     1.5300 nd         1 SZC      -0.588100
     21 N21          2.2900     0.0000     3.4310 na         1 SZC      -0.250300
     22 N22         -2.4950    -0.4910     3.8540 n7         1 SZC      -0.825100
     23 O23         -0.3270     0.3340     5.0800 o          1 SZC      -0.609300
     24 O24         -0.3010    -1.8220     4.3960 o          1 SZC      -0.609300
     25 F25          9.4310    -0.8240     5.0010 f          1 SZC      -0.224300
     26 F26          9.0460     1.2590     5.6960 f          1 SZC      -0.224300
     27 F27          8.3350    -0.4700     6.9100 f          1 SZC      -0.224300
     28 S28         -0.7900    -0.5080     3.9760 sy         1 SZC       1.222200
     29 H1          -0.5420     0.0000    -0.9380 ha         1 SZC       0.143000
     30 H2           5.9980     0.0010     1.7500 ha         1 SZC       0.153500
     31 H3           3.9170     0.0000     5.5070 ha         1 SZC       0.153500
     32 H4           8.1470     0.0010     2.9530 ha         1 SZC       0.152500
     33 H5           6.0780     0.0010     6.6900 ha         1 SZC       0.152500
     34 H6           1.9070     0.0010    -0.9380 ha         1 SZC       0.148000
     35 H7          -1.7910    -0.0010     1.1820 ha         1 SZC       0.157000
     36 H14A        -4.9210    -1.6140     5.3820 hc         1 SZC       0.058700
     37 H15         -3.6560    -4.2560     5.1050 hc         1 SZC       0.058700
     38 H15A        -2.9400    -2.7870     5.8130 hc         1 SZC       0.058700
     39 H16         -4.9350    -2.4900     2.4320 hc         1 SZC       0.094200
     40 H16A        -5.1300    -0.8390     3.1070 hc         1 SZC       0.094200
     41 H17         -1.6240    -2.9990     4.1090 hc         1 SZC       0.094200
     42 H17A        -2.8470    -3.8560     3.1390 hc         1 SZC       0.094200
     43 H18         -2.6420    -2.4860     3.5290 h1         1 SZC       0.228700
     44 HN21         2.1010     0.0230     4.4130 hn         1 SZC       0.330700
     45 HN22        -3.0430     0.2610     4.2220 hn         1 SZC       0.442800
     46 H14         -5.6370    -3.0830     4.6740 hc         1 SZC       0.058700
@<TRIPOS>BOND
     1     1     6 ar
     2     1     7 ar
     3     2     4 ar
     4     2     8 ar
     5     3     5 ar
     6     3     8 ar
     7     4     9 ar
     8     5     9 ar
     9     6    10 ar
    10     7    12 ar
    11     8    13 1
    12     9    19 1
    13    10    11 ar
    14    10    20 1
    15    11    12 ar
    16    11    21 1
    17    12    28 1
    18    13    20 2
    19    13    21 1
    20    14    15 1
    21    14    16 1
    22    15    17 1
    23    16    18 1
    24    17    18 1
    25    18    22 1
    26    19    25 1
    27    19    26 1
    28    19    27 1
    29    22    28 1
    30    23    28 2
    31    24    28 2
    32     1    29 1
    33     2    30 1
    34     3    31 1
    35     4    32 1
    36     5    33 1
    37     6    34 1
    38     7    35 1
    39    14    46 1
    40    14    36 1
    41    15    37 1
    42    15    38 1
    43    16    39 1
    44    16    40 1
    45    17    41 1
    46    17    42 1
    47    18    43 1
    48    21    44 1
    49    22    45 1
@<TRIPOS>SUBSTRUCTURE
     1 SZC         1 TEMP              0 ****  ****    0 ROOT
