@<TRIPOS>MOLECULE
molecule
   52    51     1     0     0
SMALL
bcc


@<TRIPOS>ATOM
      1 C1           0.0000     0.0000     0.0000 c2         1 SZH      -0.447200
      2 C2           1.3100     0.0000     0.0000 c2         1 SZH      -0.264400
      3 C3           6.1470     5.7600    -6.3820 c3         1 SZH       0.056500
      4 C4           5.6480     4.3850    -6.0170 c          1 SZH       0.613100
      5 C5           2.0640     0.0000     1.3050 c3         1 SZH      -0.079900
      6 C6           2.2770     3.6710    -3.6570 c3         1 SZH      -0.088100
      7 C7          -0.7530     0.1240     1.2990 c3         1 SZH       0.074600
      8 C8           2.0630     0.0010    -1.3050 c3         1 SZH       0.015800
      9 C9           2.4270     1.4380    -1.6840 c3         1 SZH      -0.073400
     10 C10          3.1920     1.4390    -3.0090 c3         1 SZH      -0.077400
     11 C11          4.4270     2.8670    -4.6450 c3         1 SZH       0.146400
     12 C12          3.5560     2.8750    -3.3870 c3         1 SZH      -0.075700
     13 C13          6.9850     6.3200    -5.2320 c3         1 SZH       0.580900
     14 N15          6.9710     5.6750    -7.5940 n7         1 SZH      -0.646000
     15 O19          5.9500     3.4330    -6.6970 o          1 SZH      -0.526000
     16 O23         -1.8210     1.0610     1.1440 os         1 SZH      -0.547200
     17 F25          6.1990     6.4010    -4.0770 f          1 SZH      -0.227967
     18 F26          8.0760     5.4770    -4.9950 f          1 SZH      -0.227967
     19 F27          7.4480     7.5970    -5.5710 f          1 SZH      -0.227967
     20 P28         -5.4120     2.9040     2.3300 p5         1 SZH       1.290900
     21 P29         -2.8340     1.4420     2.3350 p5         1 SZH       1.396800
     22 H1          -0.1840    -0.8550     0.6390 ha         1 SZH       0.306000
     23 H3           5.3020     6.4140    -6.5650 h1         1 SZH       0.093700
     24 H5           1.8720     0.9260     1.8330 hc         1 SZH       0.027700
     25 H5A          1.7360    -0.8360     1.9120 hc         1 SZH       0.027700
     26 H5B          3.1250    -0.0910     1.1090 hc         1 SZH       0.027700
     27 H6           2.4590     4.3900    -4.4470 hc         1 SZH       0.039700
     28 H6A          1.9790     4.1930    -2.7560 hc         1 SZH       0.039700
     29 H6B          1.4880     2.9940    -3.9600 hc         1 SZH       0.039700
     30 H7          -0.1320     0.3100     2.1670 h1         1 SZH       0.204200
     31 H7A         -0.4640     0.8780     0.5770 h1         1 SZH       0.204200
     32 H8           1.4420    -0.4300    -2.0800 hc         1 SZH       0.028200
     33 H8A          2.9680    -0.5850    -1.2000 hc         1 SZH       0.028200
     34 H9           3.0480     1.8690    -0.9080 hc         1 SZH       0.050200
     35 H9A          1.5220     2.0240    -1.7890 hc         1 SZH       0.050200
     36 H10          4.0980     0.8530    -2.9030 hc         1 SZH       0.035200
     37 H10A         2.5710     1.0070    -3.7840 hc         1 SZH       0.035200
     38 H11          5.2890     2.2320    -4.4830 h1         1 SZH       0.044200
     39 H11A         3.8510     2.4880    -5.4810 h1         1 SZH       0.044200
     40 H12          4.1020     3.3360    -2.5730 hc         1 SZH       0.061700
     41 HN14         6.1480     7.4730    -8.0120 hn         1 SZH       0.288133
     42 HN1A         7.7560     7.4030    -8.2900 hn         1 SZH       0.288133
     43 HN15         7.9240     5.5030    -7.3390 hn         1 SZH       0.322800
     44 N14          6.8910     6.9050    -8.3660 nz         1 SZH      -0.623400
     45 O16         -6.3040     3.4580     1.1090 o          1 SZH      -0.617500
     46 O17         -5.1990     4.0750     3.4130 o          1 SZH      -0.617500
     47 O20         -6.1040     1.7620     2.9680 o          1 SZH      -0.617500
     48 O18         -3.4570     0.2080     2.8660 o          1 SZH      -0.816000
     49 O21         -2.0250     2.1820     3.5140 o          1 SZH      -0.816000
     50 O24         -3.9810     2.4210     1.7730 os         1 SZH      -0.704800
     51 H143         6.7150     6.6850    -9.3260 hn         1 SZH       0.288133
     52 O22          4.8690     4.2180    -4.9360 os         1 SZH      -0.427900
@<TRIPOS>BOND
     1     2     1 2
     2     1     7 1
     3     1    22 1
     4     5     2 1
     5     2     8 1
     6    13     3 1
     7    14     3 1
     8     3     4 1
     9     3    23 1
    10    52     4 1
    11     4    15 2
    12     5    24 1
    13     5    25 1
    14     5    26 1
    15    12     6 1
    16     6    27 1
    17     6    28 1
    18     6    29 1
    19     7    16 1
    20     7    30 1
    21     7    31 1
    22     8     9 1
    23     8    32 1
    24     8    33 1
    25     9    10 1
    26     9    34 1
    27     9    35 1
    28    10    12 1
    29    10    36 1
    30    10    37 1
    31    11    52 1
    32    11    12 1
    33    11    38 1
    34    11    39 1
    35    12    40 1
    36    19    13 1
    37    13    17 1
    38    13    18 1
    39    44    14 1
    40    44    41 1
    41    44    42 1
    42    14    43 1
    43    20    45 1
    44    20    46 1
    45    48    21 1
    46    47    20 1
    47    21    49 1
    48    16    21 1
    49    21    50 1
    50    50    20 1
    51    51    44 1
@<TRIPOS>SUBSTRUCTURE
     1 SZH         1 TEMP              0 ****  ****    0 ROOT
