@<TRIPOS>MOLECULE
SZH
   53    52     1     0     0
SMALL
bcc


@<TRIPOS>ATOM
      1 C1          0.0510    0.1960    0.7560 c2        1 SZH     -0.158200
      2 C2          1.3790    0.0140    0.8120 c2        1 SZH     -0.156400
      3 C3          5.1020    5.7070   -6.0130 c3        1 SZH      0.098500
      4 C4          4.9020    4.2140   -5.7640 c         1 SZH      0.589100
      5 C5          2.1420   -0.1450    2.0710 c3        1 SZH     -0.047900
      6 C6          1.6790    2.9640   -3.7100 c3        1 SZH     -0.105100
      7 C7         -0.8470    0.2720    1.9440 c3        1 SZH      0.205600
      8 C8          2.1880   -0.0320   -0.4430 c3        1 SZH     -0.030200
      9 C9          2.2740    1.3360   -1.0950 c3        1 SZH     -0.092400
     10 C10         2.9980    1.2600   -2.4220 c3        1 SZH     -0.067400
     11 C11         4.0950    2.5820   -4.2120 c3        1 SZH      0.135400
     12 C12         3.0280    2.6120   -3.1210 c3        1 SZH     -0.067700
     13 C13         6.5980    6.0860   -5.6570 c3        1 SZH      0.633900
     14 N15         4.8030    6.1230   -7.3560 n3        1 SZH     -0.911800
     15 O19         5.1310    3.3030   -6.5610 o         1 SZH     -0.531000
     16 O23        -2.1860    0.3870    1.5480 os        1 SZH     -0.582200
     17 F25         7.0060    5.6260   -4.4350 f         1 SZH     -0.230967
     18 F26         7.5360    5.6300   -6.5460 f         1 SZH     -0.230967
     19 F27         6.8030    7.4410   -5.6080 f         1 SZH     -0.230967
     20 P28        -2.0700    3.5390   -0.6670 p5        1 SZH      1.725500
     21 P29        -2.9960    1.7520    1.9180 p5        1 SZH      1.548800
     22 H1         -0.4550    0.3160   -0.2190 ha        1 SZH      0.146000
     23 H3          4.4590    6.2830   -5.2810 h1        1 SZH      0.128700
     24 H5          2.9830    0.5920    2.1060 hc        1 SZH      0.032033
     25 H5A         1.4970    0.0150    2.9690 hc        1 SZH      0.032033
     26 H5B         2.5790   -1.1740    2.1290 hc        1 SZH      0.032033
     27 H6          1.3570    2.1920   -4.4490 hc        1 SZH      0.050700
     28 H6A         1.7380    3.9510   -4.2290 hc        1 SZH      0.050700
     29 H6B         0.9030    3.0270   -2.9030 hc        1 SZH      0.050700
     30 H7         -0.7550   -0.6820    2.5400 h1        1 SZH      0.049200
     31 H7A        -0.5640    1.1450    2.6020 h1        1 SZH      0.049200
     32 H8          1.7180   -0.7550   -1.1630 hc        1 SZH      0.030200
     33 H8A         3.2210   -0.4100   -0.2220 hc        1 SZH      0.030200
     34 H9          2.8130    2.0420   -0.4110 hc        1 SZH      0.069700
     35 H9A         1.2360    1.7470   -1.2430 hc        1 SZH      0.069700
     36 H10         2.4930    0.5100   -3.0870 hc        1 SZH      0.031200
     37 H10A        4.0480    0.8990   -2.2500 hc        1 SZH      0.031200
     38 H11         3.7400    2.0350   -5.1230 h1        1 SZH      0.055700
     39 H11A        5.0580    2.1380   -3.8510 h1        1 SZH      0.055700
     40 H12         3.3120    3.4040   -2.3710 hc        1 SZH      0.068700
     41 HN14        7.9440    7.8890   -7.7410 hn        1 SZH      0.333467
     42 HN1A        7.1590    6.8860   -8.7380 hn        1 SZH      0.333467
     43 HN15        3.8160    6.2000   -7.4990 hn        1 SZH      0.386800
     44 N14         7.3010    7.8490   -8.5070 n3        1 SZH     -1.003400
     45 O16        -0.4590    3.3850   -0.9990 os        1 SZH     -0.370900
     46 O17        -2.7830    4.7340   -1.0630 o         1 SZH     -0.798300
     47 O20        -1.2530    2.6290   -1.7780 os        1 SZH     -0.370900
     48 O18        -4.4160    1.5380    1.6590 o         1 SZH     -0.804500
     49 O21        -2.3280    2.4170    3.0380 o         1 SZH     -0.804500
     50 O24        -2.4670    2.6950    0.5360 os        1 SZH     -0.763800
     51 H152        5.2090    5.5020   -8.0300 hn        1 SZH      0.386800
     52 H143        6.4300    8.2310   -8.2010 hn        1 SZH      0.333467
     53 O22         4.3710    3.9620   -4.5460 os        1 SZH     -0.413900
@<TRIPOS>BOND
     1    1    2 2   
     2    1    7 1   
     3    1   22 1   
     4    2    5 1   
     5    2    8 1   
     6    3    4 1   
     7    3   13 1   
     8    3   14 1   
     9    3   23 1   
    10    4   15 2   
    11    4   53 1   
    12    5   24 1   
    13    5   25 1   
    14    5   26 1   
    15    6   12 1   
    16    6   27 1   
    17    6   28 1   
    18    6   29 1   
    19    7   16 1   
    20    7   30 1   
    21    7   31 1   
    22    8    9 1   
    23    8   32 1   
    24    8   33 1   
    25    9   10 1   
    26    9   34 1   
    27    9   35 1   
    28   10   12 1   
    29   10   36 1   
    30   10   37 1   
    31   11   12 1   
    32   11   38 1   
    33   11   39 1   
    34   11   53 1   
    35   12   40 1   
    36   13   17 1   
    37   13   18 1   
    38   13   19 1   
    39   14   43 1   
    40   14   51 1   
    41   16   21 1   
    42   20   45 1   
    43   20   46 2   
    44   20   47 1   
    45   20   50 1   
    46   21   48 1   
    47   21   49 1   
    48   21   50 1   
    49   41   44 1   
    50   42   44 1   
    51   44   52 1   
    52   45   47 1   
@<TRIPOS>SUBSTRUCTURE
     1 SZH         1 TEMP              0 ****  ****    0 ROOT
