@<TRIPOS>MOLECULE
molecule
   17    18     1     0     0
SMALL
bcc


@<TRIPOS>ATOM
      1 C1           0.0000     0.0000     0.0000 ca         1 SZL      -0.164200
      2 N4           1.3540     0.0000     0.0000 nc         1 SZL      -0.559100
      3 C9           1.7870     0.0000     1.2270 cd         1 SZL       0.415700
      4 N5           0.7350    -0.0010     2.0930 na         1 SZL      -0.359000
      5 C2          -0.4140    -0.0010     1.3430 ca         1 SZL       0.460800
      6 N6          -1.7140    -0.0010     1.6190 nb         1 SZL      -0.776000
      7 C10         -2.6040    -0.0000     0.6490 ca         1 SZL       0.735900
      8 N7          -2.2620    -0.0010    -0.6270 nb         1 SZL      -0.839000
      9 C3          -0.9870    -0.0040    -0.9970 ca         1 SZL       0.751600
     10 O8          -0.6460    -0.0100    -2.3090 os         1 SZL      -0.412100
     11 C11         -1.7160    -0.0140    -3.2570 c3         1 SZL       0.132700
     12 H9           2.8310     0.0010     1.5180 h5         1 SZL       0.082800
     13 H5           0.7900    -0.0010     3.0930 hn         1 SZL       0.316700
     14 H10         -3.6560     0.0030     0.9070 h5         1 SZL       0.064100
     15 H111        -2.3250     0.8710    -3.1180 h1         1 SZL       0.050033
     16 H112        -2.3250    -0.8980    -3.1100 h1         1 SZL       0.050033
     17 H113        -1.3090    -0.0190    -4.2610 h1         1 SZL       0.050033
@<TRIPOS>BOND
     1     1     2 1
     2     1     5 ar
     3     1     9 ar
     4     2     3 2
     5     3     4 1
     6     4     5 1
     7     5     6 ar
     8     6     7 ar
     9     7     8 ar
    10     8     9 ar
    11     9    10 1
    12    10    11 1
    13     3    12 1
    14     4    13 1
    15     7    14 1
    16    11    15 1
    17    11    16 1
    18    11    17 1
@<TRIPOS>SUBSTRUCTURE
     1 SZL         1 TEMP              0 ****  ****    0 ROOT
