@<TRIPOS>MOLECULE
SZZ
   38    38     1     0     0
SMALL
bcc


@<TRIPOS>ATOM
      1 O15          0.0000     0.0000     0.0000 o          1 SZZ      -0.663200
      2 S12          1.4210     0.0000     0.0000 s6         1 SZZ       1.319300
      3 O14          2.1990     0.0000     1.1900 o          1 SZZ      -0.663200
      4 O13          1.8510    -1.2240    -0.7950 o          1 SZZ      -0.663200
      5 O11          1.8510     1.2260    -0.7930 os         1 SZZ      -0.283200
      6 N10          1.0420     1.4920    -1.9250 n2         1 SZZ      -0.229200
      7 C09          1.3030     2.5060    -2.6830 c2         1 SZZ       0.334200
      8 C16          2.5410     3.3300    -2.4380 c3         1 SZZ      -0.012500
      9 C17          3.5950     2.9680    -3.4520 c2         1 SZZ      -0.109200
     10 C18          4.1060     3.8940    -4.2250 c2         1 SZZ      -0.208000
     11 S08          0.2120     2.9250    -4.0010 ss         1 SZZ      -0.343300
     12 C07         -1.0360     1.6290    -3.8020 c3         1 SZZ       0.271200
     13 O06         -0.4440     0.3540    -4.0590 os         1 SZZ      -0.350600
     14 C19         -2.1820     1.8670    -4.7880 c3         1 SZZ       0.155100
     15 O20         -2.8120     3.1160    -4.4950 oh         1 SZZ      -0.576800
     16 C21         -3.2040     0.7340    -4.6540 c3         1 SZZ       0.156100
     17 O22         -4.2410     0.9080    -5.6210 oh         1 SZZ      -0.595800
     18 C23         -2.4990    -0.6050    -4.8930 c3         1 SZZ       0.137100
     19 O24         -3.4270    -1.6750    -4.7000 oh         1 SZZ      -0.578800
     20 C05         -1.3410    -0.7470    -3.9030 c3         1 SZZ       0.156100
     21 C04         -0.5950    -2.0550    -4.1740 c3         1 SZZ       0.214400
     22 O03          0.4130    -2.2450    -3.1800 oh         1 SZZ      -0.507800
     23 H1           2.9160     3.1320    -1.4410 hc         1 SZZ       0.035200
     24 H2           2.2980     4.3820    -2.5300 hc         1 SZZ       0.035200
     25 H3           3.9430     1.9450    -3.5300 ha         1 SZZ       0.113000
     26 H4           4.8640     3.6330    -4.9540 ha         1 SZZ       0.077500
     27 H5           3.7770     4.9220    -4.1300 ha         1 SZZ       0.077500
     28 H6          -1.4230     1.6480    -2.7900 h2         1 SZZ       0.074700
     29 H7          -1.7910     1.8820    -5.7980 h1         1 SZZ       0.021700
     30 H8          -2.6500     3.7230    -5.1980 ho         1 SZZ       0.392000
     31 H9          -3.6260     0.7460    -3.6570 h1         1 SZZ       0.031700
     32 H10         -5.0670     1.0160    -5.1800 ho         1 SZZ       0.394000
     33 H11         -2.1130    -0.6330    -5.9050 h1         1 SZZ       0.011700
     34 H12         -3.6430    -2.0590    -5.5340 ho         1 SZZ       0.385000
     35 H13         -1.7310    -0.7520    -2.8920 h1         1 SZZ       0.061700
     36 H14         -1.2930    -2.8830    -4.1420 h1         1 SZZ      -0.023300
     37 H15         -0.1320    -2.0110    -5.1530 h1         1 SZZ      -0.023300
     38 H16          0.8080    -3.0940    -3.2900 ho         1 SZZ       0.372000
@<TRIPOS>BOND
     1     1     2 1   
     2     2     3 1   
     3     2     4 1   
     4     2     5 1   
     5     5     6 1   
     6     6     7 2   
     7     7     8 1   
     8     7    11 1   
     9     8     9 1   
    10     8    23 1   
    11     8    24 1   
    12     9    10 2   
    13     9    25 1   
    14    10    26 1   
    15    10    27 1   
    16    11    12 1   
    17    12    13 1   
    18    12    14 1   
    19    12    28 1   
    20    13    20 1   
    21    14    15 1   
    22    14    16 1   
    23    14    29 1   
    24    15    30 1   
    25    16    17 1   
    26    16    18 1   
    27    16    31 1   
    28    17    32 1   
    29    18    19 1   
    30    18    20 1   
    31    18    33 1   
    32    19    34 1   
    33    20    21 1   
    34    20    35 1   
    35    21    22 1   
    36    21    36 1   
    37    21    37 1   
    38    22    38 1   
@<TRIPOS>SUBSTRUCTURE
     1 SZZ         1 TEMP              0 ****  ****    0 ROOT
