@<TRIPOS>MOLECULE
molecule
   38    38     1     0     0
SMALL
bcc


@<TRIPOS>ATOM
      1 O15          0.0000     0.0000     0.0000 o          1 SZZ      -0.723867
      2 S12          1.4210     0.0000     0.0000 s6         1 SZZ       1.562300
      3 O14          2.1990     0.0000     1.1900 o          1 SZZ      -0.723867
      4 O13          1.8510    -1.2240    -0.7950 o          1 SZZ      -0.723867
      5 O11          1.8510     1.2260    -0.7930 os         1 SZZ      -0.394200
      6 N10          1.0420     1.4920    -1.9250 n2         1 SZZ      -0.298200
      7 C09          1.3030     2.5060    -2.6830 c2         1 SZZ       0.364200
      8 C16          2.5410     3.3300    -2.4380 c3         1 SZZ      -0.079500
      9 C17          3.5950     2.9680    -3.4520 c2         1 SZZ      -0.096200
     10 C18          4.1060     3.8940    -4.2250 c2         1 SZZ      -0.253000
     11 S08          0.2120     2.9250    -4.0010 ss         1 SZZ      -0.208300
     12 C07         -1.0360     1.6290    -3.8020 c3         1 SZZ       0.214200
     13 O06         -0.4440     0.3540    -4.0590 os         1 SZZ      -0.366600
     14 C19         -2.1820     1.8670    -4.7880 c3         1 SZZ       0.113100
     15 O20         -2.8120     3.1160    -4.4950 oh         1 SZZ      -0.595800
     16 C21         -3.2040     0.7340    -4.6540 c3         1 SZZ       0.122100
     17 O22         -4.2410     0.9080    -5.6210 oh         1 SZZ      -0.614800
     18 C23         -2.4990    -0.6050    -4.8930 c3         1 SZZ       0.102100
     19 O24         -3.4270    -1.6750    -4.7000 oh         1 SZZ      -0.597800
     20 C05         -1.3410    -0.7470    -3.9030 c3         1 SZZ       0.143100
     21 C04         -0.5950    -2.0550    -4.1740 c3         1 SZZ       0.149400
     22 O03          0.4130    -2.2450    -3.1800 oh         1 SZZ      -0.530800
     23 H1           2.9160     3.1320    -1.4410 hc         1 SZZ       0.072700
     24 H2           2.2980     4.3820    -2.5300 hc         1 SZZ       0.072700
     25 H3           4.2230     2.8820    -2.5740 ha         1 SZZ       0.099000
     26 H4           4.6150     4.6570    -3.6480 ha         1 SZZ       0.096000
     27 H5           3.3890     4.6790    -4.4330 ha         1 SZZ       0.096000
     28 H6          -1.4230     1.6480    -2.7900 h2         1 SZZ       0.103700
     29 H7          -1.7910     1.8820    -5.7980 h1         1 SZZ       0.054700
     30 H8          -2.6760     3.7130    -5.2110 ho         1 SZZ       0.404000
     31 H9          -3.6260     0.7460    -3.6570 h1         1 SZZ       0.069700
     32 H10         -5.0690     1.0060    -5.1810 ho         1 SZZ       0.408000
     33 H11         -2.1130    -0.6330    -5.9050 h1         1 SZZ       0.044700
     34 H12         -3.7100    -2.0010    -5.5380 ho         1 SZZ       0.400000
     35 H13         -1.7310    -0.7520    -2.8920 h1         1 SZZ       0.095700
     36 H14         -0.1320    -2.0110    -5.1530 h1         1 SZZ       0.013200
     37 H15         -1.2930    -2.8830    -4.1420 h1         1 SZZ       0.013200
     38 H16          0.8370    -3.0760    -3.3160 ho         1 SZZ       0.392000
@<TRIPOS>BOND
     1    22    21 1
     2    21    20 1
     3    11     7 1
     4    11    12 1
     5    20    13 1
     6    20    18 1
     7    13    12 1
     8     6     7 2
     9     6     5 1
    10     7     8 1
    11     3     2 1
    12     5     2 1
    13    12    14 1
    14    18    19 1
    15    18    16 1
    16     8     9 1
    17     2     1 1
    18     2     4 1
    19    14    16 1
    20    14    15 1
    21    16    17 1
    22     9    10 2
    23     8    23 1
    24     8    24 1
    25     9    25 1
    26    10    26 1
    27    10    27 1
    28    12    28 1
    29    14    29 1
    30    15    30 1
    31    16    31 1
    32    17    32 1
    33    18    33 1
    34    19    34 1
    35    20    35 1
    36    21    36 1
    37    21    37 1
    38    22    38 1
@<TRIPOS>SUBSTRUCTURE
     1 SZZ         1 TEMP              0 ****  ****    0 ROOT
