@<TRIPOS>MOLECULE
molecule
   52    54     1     0     0
SMALL
bcc


@<TRIPOS>ATOM
      1 CAA          0.0000     0.0000     0.0000 c3         1 V02      -0.088100
      2 CAU          1.5300     0.0000     0.0000 c3         1 V02      -0.042100
      3 CAV          2.0330     0.0000     1.4200 ca         1 V02      -0.067300
      4 CAK          2.2580     1.1980     2.0750 ca         1 V02      -0.113000
      5 CAQ          2.2640    -1.1970     2.0720 ca         1 V02      -0.102000
      6 CAY          2.7250    -1.1960     3.3750 ca         1 V02      -0.096300
      7 CAP          2.9550     0.0000     4.0270 ca         1 V02      -0.160000
      8 CAJ          2.7190     1.1980     3.3770 ca         1 V02      -0.126000
      9 CAZ          2.9750    -2.5020     4.0860 c3         1 V02       0.207000
     10 CAN          4.1200    -4.6740     3.5990 ca         1 V02      -0.121500
     11 CAH          4.9750    -5.4530     2.8440 ca         1 V02      -0.131500
     12 CAE          5.6250    -4.9070     1.7530 ca         1 V02      -0.114000
     13 CAI          5.4190    -3.5820     1.4180 ca         1 V02      -0.131500
     14 CAO          4.5640    -2.8020     2.1740 ca         1 V02      -0.121500
     15 CAX          3.9090    -3.3510     3.2610 ca         1 V02      -0.117300
     16 SAT          3.7270    -2.1740     5.7040 ss         1 V02      -0.255200
     17 CAS          5.3480    -1.4860     5.2690 c3         1 V02      -0.059300
     18 CAR          6.1670    -1.2670     6.5440 c3         1 V02       0.110800
     19 NAB          7.4800    -0.7090     6.1920 nz         1 V02      -0.810600
     20 CAG         -0.2870    -3.6680     5.5860 ca         1 V02      -0.104000
     21 CAM          0.9110    -3.0020     5.4080 ca         1 V02      -0.128000
     22 CAW          1.6700    -3.2290     4.2750 ca         1 V02      -0.067300
     23 CAL          1.2320    -4.1240     3.3180 ca         1 V02      -0.133000
     24 CAF          0.0300    -4.7930     3.4930 ca         1 V02       0.116100
     25 CAD         -0.7270    -4.5670     4.6330 ca         1 V02      -0.144000
     26 OAC         -0.4030    -5.6730     2.5520 oh         1 V02      -0.513100
     27 HAA1        -0.3610     0.7860     0.6530 hc         1 V02       0.042700
     28 HAA2        -0.3610     0.1720    -1.0070 hc         1 V02       0.042700
     29 HAA3        -0.3610    -0.9580     0.3540 hc         1 V02       0.042700
     30 HAU1         1.8910     0.8840    -0.5110 hc         1 V02       0.052200
     31 HAU2         1.8910    -0.8850    -0.5110 hc         1 V02       0.052200
     32 HAQ          2.0840    -2.1350     1.5610 ha         1 V02       0.150000
     33 HAK          2.0720     2.1360     1.5660 ha         1 V02       0.143000
     34 HAJ          2.8970     2.1360     3.8880 ha         1 V02       0.132000
     35 HAP          3.3170     0.0000     5.0480 ha         1 V02       0.132000
     36 HAN          3.6100    -5.1030     4.4540 ha         1 V02       0.149000
     37 HAO          4.4020    -1.7640     1.9120 ha         1 V02       0.149000
     38 HAH          5.1380    -6.4910     3.1070 ha         1 V02       0.142000
     39 HAE          6.2960    -5.5180     1.1600 ha         1 V02       0.143000
     40 HAI          5.9300    -3.1530     0.5650 ha         1 V02       0.142000
     41 HAS1         5.2140    -0.5400     4.7590 h1         1 V02       0.086200
     42 HAS2         5.8710    -2.1760     4.6190 h1         1 V02       0.086200
     43 HAR1         5.6440    -0.5760     7.1950 hx         1 V02       0.120700
     44 HAR2         6.3020    -2.2130     7.0540 hx         1 V02       0.120700
     45 HAB1         8.0530    -0.6650     7.0110 hn         1 V02       0.457133
     46 HAB2         7.9180    -1.2940     5.5080 hn         1 V02       0.457133
     47 HAL          1.8250    -4.2990     2.4280 ha         1 V02       0.152000
     48 HAM          1.2540    -2.2970     6.1560 ha         1 V02       0.139000
     49 HAD         -1.6660    -5.0890     4.7730 ha         1 V02       0.151000
     50 HAC         -0.2160    -6.5530     2.8350 ho         1 V02       0.426000
     51 HAB3         7.3600     0.2060     5.8050 hn         1 V02       0.457133
     52 HAG         -0.8790    -3.4890     6.4750 ha         1 V02       0.144000
@<TRIPOS>BOND
     1     1     2 1
     2     2     3 1
     3     3     5 ar
     4     3     4 ar
     5     5     6 ar
     6     4     8 ar
     7     8     7 ar
     8     7     6 ar
     9     6     9 1
    10     9    15 1
    11     9    16 1
    12     9    22 1
    13    15    10 ar
    14    15    14 ar
    15    10    11 ar
    16    11    12 ar
    17    12    13 ar
    18    13    14 ar
    19    16    17 1
    20    17    18 1
    21    18    19 1
    22    22    23 ar
    23    22    21 ar
    24    23    24 ar
    25    24    25 ar
    26    24    26 1
    27    25    20 ar
    28    20    21 ar
    29     1    27 1
    30     1    28 1
    31     1    29 1
    32     2    30 1
    33     2    31 1
    34     5    32 1
    35     4    33 1
    36     8    34 1
    37     7    35 1
    38    10    36 1
    39    14    37 1
    40    11    38 1
    41    12    39 1
    42    13    40 1
    43    17    41 1
    44    17    42 1
    45    18    43 1
    46    18    44 1
    47    19    45 1
    48    19    46 1
    49    23    47 1
    50    21    48 1
    51    25    49 1
    52    26    50 1
    53    20    52 1
    54    51    19 1
@<TRIPOS>SUBSTRUCTURE
     1 V02         1 TEMP              0 ****  ****    0 ROOT
