@<TRIPOS>MOLECULE
molecule
   39    41     1     0     0
SMALL
bcc


@<TRIPOS>ATOM
      1 C1           0.0000     0.0000     0.0000 ca         1 V04      -0.196600
      2 F1          -4.8420     0.0920     1.4620 f          1 V04      -0.142900
      3 I1          -5.1970     5.4210     0.7200 i          1 V04      -0.173900
      4 N1           1.8420    -0.0010     3.6960 na         1 V04      -0.042100
      5 O1          -1.9480    -0.1000    -1.2760 o          1 V04      -0.565100
      6 C2           1.4040     0.0000     0.0000 ca         1 V04      -0.066000
      7 N2           0.7070     0.0070     4.5180 nc         1 V04      -0.498100
      8 O2          -0.7750     0.1110    -3.6650 os         1 V04      -0.164900
      9 C3           2.0990     0.0000     1.1700 ca         1 V04      -0.162000
     10 O3          -1.6440     1.3820    -6.0910 oh         1 V04      -0.596800
     11 C4          -0.7000     0.0050     1.2120 ca         1 V04       0.285600
     12 N4          -0.0670     0.1100    -2.4380 ns         1 V04      -0.474400
     13 C5           0.0180     0.0050     2.4210 ca         1 V04      -0.274900
     14 C6           1.4250    -0.0010     2.3930 ca         1 V04      -0.001200
     15 C7          -0.3670     0.0100     3.7820 cd         1 V04       0.399800
     16 C8          -2.7800     1.2190     1.1090 ca         1 V04       0.206600
     17 C9          -2.0900     2.3990     0.8690 ca         1 V04      -0.180000
     18 C10         -2.7800     3.5910     0.7590 ca         1 V04      -0.065000
     19 C11         -4.1570     3.6100     0.8880 ca         1 V04       0.023900
     20 C12         -4.8490     2.4360     1.1280 ca         1 V04      -0.093000
     21 C13         -4.1660     1.2390     1.2330 ca         1 V04       0.064900
     22 C14         -0.7360    -0.0000    -1.2740 c          1 V04       0.689700
     23 C15          0.0600     0.2340    -4.8180 c3         1 V04       0.108400
     24 C16         -0.8070     0.2220    -6.0790 c3         1 V04       0.149400
     25 H2           1.9400    -0.0040    -0.9420 ha         1 V04       0.130000
     26 H3           3.1820     0.0000     1.1520 ha         1 V04       0.136000
     27 HN3         -2.5860    -0.8490     1.3300 hn         1 V04       0.471800
     28 HO3         -2.1160     1.4200    -6.9060 ho         1 V04       0.405000
     29 HN4          0.9310     0.1910    -2.4370 hn         1 V04       0.316500
     30 H7          -1.3850     0.0160     4.1510 h4         1 V04       0.071800
     31 H9          -1.0120     2.3850     0.7680 ha         1 V04       0.145000
     32 H10         -2.2410     4.5120     0.5720 ha         1 V04       0.142000
     33 H12         -5.9270     2.4550     1.2330 ha         1 V04       0.154000
     34 H15          0.7560    -0.5950    -4.8500 h1         1 V04       0.039200
     35 H15A         0.6110     1.1660    -4.7670 h1         1 V04       0.039200
     36 H16         -1.4240    -0.6680    -6.0850 h1         1 V04       0.035700
     37 H16A        -0.1700     0.2270    -6.9550 h1         1 V04       0.035700
     38 HN1          2.7920    -0.0050     4.0090 hn         1 V04       0.337700
     39 N3          -2.0840     0.0100     1.2210 nu         1 V04      -0.690000
@<TRIPOS>BOND
     1     6     1 ar
     2     1    22 1
     3     1    11 ar
     4    21     2 1
     5    19     3 1
     6     4    14 1
     7     4     7 1
     8    22     5 2
     9     9     6 ar
    10     6    25 1
    11     7    15 2
    12    12     8 1
    13     8    23 1
    14     9    14 ar
    15     9    26 1
    16    11    39 1
    17    39    16 1
    18    39    27 1
    19    24    10 1
    20    10    28 1
    21    13    11 ar
    22    12    22 1
    23    12    29 1
    24    14    13 ar
    25    13    15 1
    26    15    30 1
    27    17    16 ar
    28    16    21 ar
    29    17    18 ar
    30    17    31 1
    31    18    19 ar
    32    18    32 1
    33    19    20 ar
    34    21    20 ar
    35    20    33 1
    36    23    24 1
    37    23    34 1
    38    23    35 1
    39    24    36 1
    40    24    37 1
    41     4    38 1
@<TRIPOS>SUBSTRUCTURE
     1 V04         1 TEMP              0 ****  ****    0 ROOT
