@<TRIPOS>MOLECULE
molecule
   41    45     1     0     0
SMALL
bcc


@<TRIPOS>ATOM
      1 C1           1.5300     0.0000     0.0000 c3         1 V0L       0.145300
      2 C8           2.0320     0.0000     1.4210 cc         1 V0L      -0.147300
      3 C9           1.6910    -1.0560     2.2830 cc         1 V0L      -0.111000
      4 C10          2.1470    -1.0530     3.5640 cc         1 V0L      -0.081000
      5 C11          2.9560     0.0120     4.0070 cc         1 V0L      -0.023300
      6 N1           3.2720     1.0270     3.1420 na         1 V0L       0.044700
      7 C13          2.8120     1.0100     1.8570 cd         1 V0L      -0.059300
      8 C14          4.0570     1.9110     3.8330 cc         1 V0L      -0.254100
      9 C15          4.2010     1.4230     5.0850 cd         1 V0L       0.041600
     10 N2           3.5290     0.2730     5.1730 nd         1 V0L      -0.312600
     11 C17          0.0000     0.0000     0.0000 c3         1 V0L      -0.106100
     12 N3           2.0190    -1.1960    -0.6920 na         1 V0L      -0.041800
     13 C19          2.8150    -1.2310    -1.8090 ca         1 V0L       0.329500
     14 C20          3.0190    -2.5930    -2.1000 ca         1 V0L       0.376000
     15 N5           2.3550    -3.3120    -1.1730 nd         1 V0L      -0.261000
     16 N4           1.7680    -2.5300    -0.3370 nc         1 V0L      -0.119400
     17 N23          3.7670    -2.9370    -3.1510 nb         1 V0L      -0.576000
     18 N24          3.3620    -0.2970    -2.5730 nb         1 V0L      -0.689000
     19 C25          4.1050    -0.6510    -3.6150 ca         1 V0L       0.462500
     20 C26          4.3070    -2.0060    -3.9050 ca         1 V0L       0.284900
     21 C27          4.7200     0.3890    -4.4740 cd         1 V0L      -0.385800
     22 C28          4.6040     1.7840    -4.3050 cd         1 V0L       0.376200
     23 N8           5.2840     2.3650    -5.2570 nc         1 V0L      -0.511800
     24 N9           5.8560     1.3750    -6.0640 na         1 V0L       0.077400
     25 C31          5.5060     0.1720    -5.5680 cc         1 V0L      -0.081300
     26 C32          6.6960     1.6060    -7.2420 c3         1 V0L       0.059600
     27 H1           1.8910     0.8850    -0.5100 h1         1 V0L       0.088700
     28 H2           0.9820    -1.8100     1.9620 ha         1 V0L       0.161000
     29 H3           1.8900    -1.8620     4.2370 ha         1 V0L       0.165000
     30 H4           3.0780     1.8140     1.1810 h4         1 V0L       0.161000
     31 H5           4.4820     2.8300     3.4480 h4         1 V0L       0.179000
     32 H6           4.7650     1.8880     5.8840 h4         1 V0L       0.184000
     33 H7          -0.3610     0.6950     0.7480 hc         1 V0L       0.057033
     34 H8          -0.3610     0.3000    -0.9760 hc         1 V0L       0.057033
     35 H9          -0.3610    -0.9960     0.2280 hc         1 V0L       0.057033
     36 H10          4.9140    -2.2890    -4.7570 h4         1 V0L       0.036100
     37 H11          4.0480     2.2870    -3.5220 h4         1 V0L       0.064100
     38 H12          5.7910    -0.7930    -5.9700 h4         1 V0L       0.175000
     39 H13          6.2300     1.1590    -8.1120 h1         1 V0L       0.060033
     40 H14          6.8100     2.6720    -7.4010 h1         1 V0L       0.060033
     41 H15          7.6700     1.1590    -7.0840 h1         1 V0L       0.060033
@<TRIPOS>BOND
     1     8     6 1
     2     8     9 2
     3     7     6 1
     4     7     2 2
     5    11     1 1
     6     1     2 1
     7     1    12 1
     8     6     5 1
     9     2     3 1
    10     9    10 1
    11    12    16 1
    12    12    13 1
    13    16    15 2
    14    13    18 ar
    15    13    14 ar
    16    15    14 1
    17    18    19 ar
    18     5    10 2
    19     5     4 1
    20    14    17 ar
    21    25    24 1
    22    25    21 2
    23     3     4 2
    24    26    24 1
    25    19    21 1
    26    19    20 ar
    27    24    23 1
    28    17    20 ar
    29    21    22 1
    30    23    22 2
    31     1    27 1
    32     3    28 1
    33     4    29 1
    34     7    30 1
    35     8    31 1
    36     9    32 1
    37    11    33 1
    38    11    34 1
    39    11    35 1
    40    20    36 1
    41    22    37 1
    42    25    38 1
    43    26    39 1
    44    26    40 1
    45    26    41 1
@<TRIPOS>SUBSTRUCTURE
     1 V0L         1 TEMP              0 ****  ****    0 ROOT
