@<TRIPOS>MOLECULE
molecule
   49    50     1     0     0
SMALL
bcc


@<TRIPOS>ATOM
      1 C1           0.0000     0.0000     0.0000 c3         1 V0N       0.097800
      2 C2          -2.0390     0.6310    -1.2970 c3         1 V0N      -0.037100
      3 N2           1.4690     0.0000     0.0000 n3         1 V0N      -0.697600
      4 C3           1.9990     0.0000     1.3800 c3         1 V0N       0.175500
      5 C4           3.3050    -0.8290     1.3030 c3         1 V0N       0.120100
      6 C5           2.9160    -1.9310     0.2820 c3         1 V0N       0.105100
      7 C6           1.9980    -1.1810    -0.7070 c3         1 V0N       0.165500
      8 O7           4.0760    -2.4310    -0.3880 oh         1 V0N      -0.588800
      9 O8           4.3870    -0.0360     0.8110 oh         1 V0N      -0.575800
     10 C9           0.8440    -2.0900    -1.1370 c3         1 V0N       0.099400
     11 O10          0.2620    -2.7000     0.0180 oh         1 V0N      -0.614800
     12 C11          2.3030     1.4290     1.8350 c3         1 V0N      -0.138400
     13 C12          1.0190     2.1110     2.2340 c          1 V0N       0.662100
     14 N13          0.9910     3.4480     2.4010 ns         1 V0N      -0.588900
     15 C14         -0.2560     4.1120     2.7890 c3         1 V0N       0.101300
     16 O15          0.0130     1.4580     2.4060 o          1 V0N      -0.623100
     17 C16         -0.5110     0.5970    -1.3130 c3         1 V0N      -0.075400
     18 C19         -2.5430     1.2170    -2.5910 ca         1 V0N      -0.091300
     19 C20         -2.8020     0.3930    -3.6700 ca         1 V0N      -0.102000
     20 C21         -3.2640     0.9310    -4.8570 ca         1 V0N      -0.165000
     21 C22         -3.4660     2.2960    -4.9640 ca         1 V0N       0.125900
     22 C23         -3.2060     3.1220    -3.8830 ca         1 V0N      -0.165000
     23 C24         -2.7490     2.5810    -2.6960 ca         1 V0N      -0.102000
     24 F25         -3.9170     2.8230    -6.1240 f          1 V0N      -0.144900
     25 H1          -0.3610    -1.0170     0.0990 h1         1 V0N       0.081700
     26 H2          -2.4220    -0.3770    -1.1850 hc         1 V0N       0.051700
     27 H3           1.2940    -0.4740     2.0520 h1         1 V0N       0.073700
     28 H4           3.5410    -1.2650     2.2660 h1         1 V0N       0.038700
     29 H5           2.3750    -2.7300     0.7730 h1         1 V0N       0.060700
     30 H6           2.5680    -0.8660    -1.5720 h1         1 V0N       0.098700
     31 H9           0.0940    -1.5020    -1.6510 h1         1 V0N       0.043200
     32 HO10        -0.0510    -3.5600    -0.2060 ho         1 V0N       0.398000
     33 H1A         -0.3610     0.5940     0.8310 h1         1 V0N       0.081700
     34 H11          2.9760     1.4020     2.6830 hc         1 V0N       0.074700
     35 H11A         2.7650     1.9760     1.0220 hc         1 V0N       0.074700
     36 HN13         1.8210     3.9880     2.2590 hn         1 V0N       0.314500
     37 H14         -0.6720     3.6190     3.6600 h1         1 V0N       0.040700
     38 H16         -0.1720    -0.0120    -2.1430 hc         1 V0N       0.047200
     39 H20         -2.6430    -0.6750    -3.5860 ha         1 V0N       0.136000
     40 H21         -3.4660     0.2850    -5.7020 ha         1 V0N       0.143000
     41 H2A         -2.3790     1.2400    -0.4680 hc         1 V0N       0.051700
     42 H23         -3.3660     4.1900    -3.9660 ha         1 V0N       0.143000
     43 H24         -2.5460     3.2260    -1.8500 ha         1 V0N       0.136000
     44 H14A        -0.9640     4.0590     1.9710 h1         1 V0N       0.040700
     45 H14B        -0.0540     5.1500     3.0250 h1         1 V0N       0.040700
     46 H16A        -0.1290     1.6040    -1.4250 hc         1 V0N       0.047200
     47 H9A          1.2190    -2.8590    -1.8010 h1         1 V0N       0.043200
     48 HO7          4.2780    -3.2930    -0.0640 ho         1 V0N       0.396000
     49 HO8          5.1770    -0.2590     1.2760 ho         1 V0N       0.399000
@<TRIPOS>BOND
     1     1     3 1
     2     1    17 1
     3     1    25 1
     4     1    33 1
     5     2    17 1
     6     2    18 1
     7     2    26 1
     8     2    41 1
     9     3     4 1
    10     3     7 1
    11     4     5 1
    12     4    12 1
    13     4    27 1
    14     5     6 1
    15     5     9 1
    16     5    28 1
    17     6     7 1
    18     6     8 1
    19     6    29 1
    20     7    10 1
    21     7    30 1
    22     8    48 1
    23     9    49 1
    24    10    11 1
    25    10    31 1
    26    10    47 1
    27    11    32 1
    28    12    13 1
    29    12    34 1
    30    12    35 1
    31    13    14 1
    32    13    16 2
    33    14    15 1
    34    14    36 1
    35    15    37 1
    36    15    44 1
    37    15    45 1
    38    17    38 1
    39    17    46 1
    40    18    19 ar
    41    18    23 ar
    42    19    20 ar
    43    19    39 1
    44    20    21 ar
    45    20    40 1
    46    21    22 ar
    47    21    24 1
    48    22    23 ar
    49    22    42 1
    50    23    43 1
@<TRIPOS>SUBSTRUCTURE
     1 V0N         1 TEMP              0 ****  ****    0 ROOT
