@<TRIPOS>MOLECULE
V10
   45    44     1     0     0
SMALL
bcc


@<TRIPOS>ATOM
      1 OXT          0.0000     0.0000     0.0000 o          1 V10      -0.827800
      2 C            1.2080     0.0000     0.0000 c          1 V10       0.960600
      3 O            1.8790    -0.0000    -1.1620 o          1 V10      -0.827800
      4 CA           1.9610     0.0000     1.3050 c3         1 V10      -0.199500
      5 N            1.0780     0.4740     2.3800 nz         1 V10       0.081400
      6 CB           2.4330    -1.4210     1.6210 c3         1 V10      -0.027400
      7 CAJ          3.3030    -1.4000     2.8800 c3         1 V10      -0.033400
      8 CAL          3.7740    -2.8210     3.1970 c3         1 V10      -0.088400
      9 CAT          4.6310    -2.8020     4.4370 c          1 V10       0.563100
     10 OAE          4.8430    -1.7540     5.0110 o          1 V10      -0.638100
     11 NAO          5.1620    -3.9480     4.9070 ns         1 V10      -0.168900
     12 CAW          5.9940    -3.9280     6.1130 c3         1 V10      -0.012300
     13 CAK          5.1000    -4.0050     7.3520 c3         1 V10       0.100700
     14 SAI          3.9730    -2.5830     7.3730 sh         1 V10      -0.410900
     15 CAU          6.9300    -5.1090     6.0960 c          1 V10       0.702100
     16 OAF          6.9040    -5.8860     5.1710 o          1 V10      -0.592000
     17 OAP          7.7930    -5.2960     7.1070 os         1 V10      -0.371900
     18 CAX          8.6640    -6.4550     7.0230 c3         1 V10       0.091100
     19 CAS          7.9950    -7.6360     7.6780 c          1 V10       0.966600
     20 OAD          8.6190    -8.8230     7.7200 o          1 V10      -0.876800
     21 OAH          6.8950    -7.5140     8.1650 o          1 V10      -0.876800
     22 CAN          9.9820    -6.1540     7.7400 c3         1 V10       0.114700
     23 SAQ         10.7880    -4.7330     6.9520 ss         1 V10      -0.453200
     24 CAA         12.3070    -4.5350     7.9240 c3         1 V10       0.109000
     25 HA           2.8190     0.6570     1.2270 hx         1 V10       0.087700
     26 HN1          0.5890     1.2910     2.0740 hn         1 V10       0.211800
     27 HN2          0.4190    -0.2430     2.6110 hn         1 V10       0.211800
     28 HBC1         1.5730    -2.0580     1.7870 hc         1 V10       0.051200
     29 HBC2         3.0110    -1.8030     0.7890 hc         1 V10       0.051200
     30 HAJ1         2.7250    -1.0180     3.7130 hc         1 V10       0.019700
     31 HAJ2         4.1630    -0.7630     2.7150 hc         1 V10       0.019700
     32 HAL1         4.3520    -3.2040     2.3650 hc         1 V10       0.034700
     33 HAL2         2.9140    -3.4580     3.3630 hc         1 V10       0.034700
     34 HAO          5.0140    -4.8060     4.4150 hn         1 V10       0.200500
     35 HAW          6.5700    -3.0110     6.1400 h1         1 V10       0.078700
     36 HAK1         4.5240    -4.9220     7.3250 h1         1 V10       0.058200
     37 HAK2         5.7160    -3.9910     8.2430 h1         1 V10       0.058200
     38 HAI          3.4500    -2.4500     8.5860 hs         1 V10       0.158800
     39 HAX          8.8620    -6.6840     5.9830 h1         1 V10       0.050700
     40 HAN1        10.6320    -7.0180     7.6780 h1         1 V10       0.052200
     41 HAN2         9.7840    -5.9250     8.7800 h1         1 V10       0.052200
     42 HAA1        12.8800    -3.7020     7.5340 h1         1 V10       0.023033
     43 HAA2        12.8970    -5.4410     7.8610 h1         1 V10       0.023033
     44 HAA3        12.0500    -4.3420     8.9590 h1         1 V10       0.023033
     45 HN3          1.6260     0.6960     3.1880 hn         1 V10       0.211800
@<TRIPOS>BOND
     1     1     2 1   
     2     2     3 1   
     3     2     4 1   
     4     4     5 1   
     5     4     6 1   
     6     4    25 1   
     7     5    26 1   
     8     5    27 1   
     9     5    45 1   
    10     6     7 1   
    11     6    28 1   
    12     6    29 1   
    13     7     8 1   
    14     7    30 1   
    15     7    31 1   
    16     8     9 1   
    17     8    32 1   
    18     8    33 1   
    19     9    10 2   
    20     9    11 1   
    21    11    12 1   
    22    11    34 1   
    23    12    13 1   
    24    12    15 1   
    25    12    35 1   
    26    13    14 1   
    27    13    36 1   
    28    13    37 1   
    29    14    38 1   
    30    15    16 2   
    31    15    17 1   
    32    17    18 1   
    33    18    19 1   
    34    18    22 1   
    35    18    39 1   
    36    19    20 1   
    37    19    21 1   
    38    22    23 1   
    39    22    40 1   
    40    22    41 1   
    41    23    24 1   
    42    24    42 1   
    43    24    43 1   
    44    24    44 1   
@<TRIPOS>SUBSTRUCTURE
     1 V10         1 TEMP              0 ****  ****    0 ROOT
