@<TRIPOS>MOLECULE
molecule
   51    54     1     0     0
SMALL
bcc


@<TRIPOS>ATOM
      1 O2           0.0000     0.0000     0.0000 o          1 V11      -0.551000
      2 C1           1.2150     0.0000     0.0000 c          1 V11       0.636700
      3 C2           1.9540     0.0000     1.2780 ca         1 V11      -0.136600
      4 C7           3.3510     0.0010     1.2810 ca         1 V11      -0.074000
      5 C6           4.0350     0.0010     2.4780 ca         1 V11      -0.144500
      6 C5           3.3410     0.0010     3.6760 ca         1 V11      -0.097000
      7 C4           1.9580     0.0000     3.6800 ca         1 V11      -0.144500
      8 C3           1.2600     0.0060     2.4900 ca         1 V11      -0.074000
      9 O1           1.8870    -0.0040    -1.1680 os         1 V11      -0.416900
     10 C8           1.0960    -0.0050    -2.3840 c3         1 V11       0.149100
     11 C12          0.8070    -1.4480    -2.8050 c3         1 V11      -0.074900
     12 C11          2.1290    -2.1260    -3.1990 c3         1 V11       0.151000
     13 C13          3.1640    -1.8220    -2.0920 c3         1 V11      -0.113400
     14 C14          3.8180    -0.4910    -2.5170 c3         1 V11      -0.113400
     15 C10          3.1190    -0.1120    -3.8420 c3         1 V11       0.151000
     16 C9           1.8690     0.7120    -3.4950 c3         1 V11      -0.074900
     17 N            2.6510    -1.4110    -4.3940 n3         1 V11      -0.685600
     18 C15          3.7610    -2.1530    -5.0080 c3         1 V11       0.155800
     19 C16          4.1020    -1.5320    -6.3640 c3         1 V11       0.199400
     20 O3           2.9840    -1.6670    -7.2440 oh         1 V11      -0.588800
     21 C17          5.2940    -2.2390    -6.9550 ca         1 V11      -0.124300
     22 C22          5.1180    -3.3990    -7.6850 ca         1 V11      -0.112000
     23 C21          6.2130    -4.0470    -8.2260 ca         1 V11      -0.132000
     24 C20          7.4820    -3.5350    -8.0380 ca         1 V11      -0.125000
     25 C19          7.6590    -2.3750    -7.3070 ca         1 V11      -0.132000
     26 C18          6.5640    -1.7230    -6.7710 ca         1 V11      -0.112000
     27 H7           3.8960     0.0010     0.3450 ha         1 V11       0.151500
     28 H3           0.1770     0.0050     2.4950 ha         1 V11       0.151500
     29 H6           5.1180     0.0020     2.4810 ha         1 V11       0.136500
     30 H5           3.8830    -0.0010     4.6130 ha         1 V11       0.133000
     31 H4           1.4200     0.0030     4.6210 ha         1 V11       0.136500
     32 H8           0.1600     0.5120    -2.2050 h1         1 V11       0.073700
     33 H121         0.1310    -1.4520    -3.6510 hc         1 V11       0.061950
     34 H122         0.3570    -1.9840    -1.9780 hc         1 V11       0.061950
     35 H91C         1.2410     0.8060    -4.3730 hc         1 V11       0.061950
     36 H92C         2.1660     1.6970    -3.1540 hc         1 V11       0.061950
     37 H11          2.0130    -3.1890    -3.3740 h1         1 V11       0.069700
     38 H131         2.6710    -1.7100    -1.1340 hc         1 V11       0.054450
     39 H132         3.9080    -2.6080    -2.0440 hc         1 V11       0.054450
     40 H141         4.8810    -0.6280    -2.6780 hc         1 V11       0.054450
     41 H142         3.6440     0.2710    -1.7670 hc         1 V11       0.054450
     42 H10          3.7820     0.4090    -4.5220 h1         1 V11       0.069700
     43 H151         3.4710    -3.1880    -5.1470 h1         1 V11       0.050200
     44 H152         4.6290    -2.1060    -4.3610 h1         1 V11       0.050200
     45 H16          4.3330    -0.4820    -6.2320 h1         1 V11       0.035700
     46 HA           2.9430    -0.9190    -7.8170 ho         1 V11       0.401000
     47 H22          4.1230    -3.8010    -7.8330 ha         1 V11       0.137000
     48 H18          6.7020    -0.8140    -6.1980 ha         1 V11       0.137000
     49 H21          6.0750    -4.9560    -8.7990 ha         1 V11       0.130000
     50 H20          8.3400    -4.0450    -8.4600 ha         1 V11       0.128000
     51 H19          8.6540    -1.9720    -7.1620 ha         1 V11       0.130000
@<TRIPOS>BOND
     1    17    15 1
     2    17    12 1
     3    17    18 1
     4     2     9 1
     5     2     3 1
     6     2     1 2
     7     9    10 1
     8     3     8 ar
     9     3     4 ar
    10     8     7 ar
    11    20    19 1
    12     7     6 ar
    13     6     5 ar
    14     5     4 ar
    15    10    16 1
    16    10    11 1
    17    16    15 1
    18    15    14 1
    19    12    11 1
    20    12    13 1
    21    13    14 1
    22    18    19 1
    23    19    21 1
    24    21    26 ar
    25    21    22 ar
    26    26    25 ar
    27    25    24 ar
    28    24    23 ar
    29    23    22 ar
    30     4    27 1
    31     8    28 1
    32     5    29 1
    33     6    30 1
    34     7    31 1
    35    10    32 1
    36    11    33 1
    37    11    34 1
    38    16    35 1
    39    16    36 1
    40    12    37 1
    41    13    38 1
    42    13    39 1
    43    14    40 1
    44    14    41 1
    45    15    42 1
    46    18    43 1
    47    18    44 1
    48    19    45 1
    49    20    46 1
    50    22    47 1
    51    26    48 1
    52    23    49 1
    53    24    50 1
    54    25    51 1
@<TRIPOS>SUBSTRUCTURE
     1 V11         1 TEMP              0 ****  ****    0 ROOT
