@<TRIPOS>MOLECULE
V12
   50    53     1     0     0
SMALL
bcc


@<TRIPOS>ATOM
      1 OAC          0.0000     0.0000     0.0000 o          1 V12      -0.566500
      2 CAV          1.2190     0.0000     0.0000 c          1 V12       0.672900
      3 NAO          1.8740     0.0000     1.1590 nc         1 V12      -0.478100
      4 CAT          3.2010    -0.0010     1.1880 cd         1 V12       0.263500
      5 NAA          3.8660    -0.0010     2.3920 nz         1 V12       0.202400
      6 CAF          3.9240    -0.0020    -0.0220 cd         1 V12      -0.382600
      7 CAG          3.2430    -0.0030    -1.1930 cc         1 V12       0.003600
      8 NBD          1.8810    -0.0070    -1.1720 n          1 V12       0.128000
      9 CBC          1.1330    -0.0130    -2.4320 c3         1 V12       0.191500
     10 OAS          0.1610     1.0560    -2.4440 os         1 V12      -0.385600
     11 CBA          0.3010    -1.3090    -2.5570 c3         1 V12       0.119100
     12 OAE          0.9820    -2.2640    -3.3730 oh         1 V12      -0.552800
     13 CAZ         -1.0100    -0.8500    -3.2340 c3         1 V12       0.153100
     14 OAD         -1.1810    -1.5090    -4.4900 oh         1 V12      -0.549800
     15 CB0         -0.8130     0.6710    -3.4390 c3         1 V12       0.155100
     16 CAN         -2.1300     1.4170    -3.2100 c3         1 V12       0.056000
     17 NAQ         -1.9310     2.8470    -3.4520 ns         1 V12      -0.216900
     18 CAU         -2.9610     3.7050    -3.3110 c          1 V12       0.570100
     19 OAB         -4.0520     3.2930    -2.9820 o          1 V12      -0.597100
     20 CAL         -2.7560     5.1770    -3.5600 c3         1 V12      -0.071700
     21 CA0         -4.0520     5.9100    -3.3350 cc         1 V12       0.196800
     22 NAR         -5.1780     5.6310    -3.9230 nd         1 V12      -0.472100
     23 CAY         -6.1430     6.4840    -3.4910 ca         1 V12       0.065400
     24 CAK         -7.5010     6.6310    -3.7860 ca         1 V12      -0.030000
     25 CAI         -8.2280     7.6120    -3.1710 ca         1 V12      -0.123000
     26 CAH         -7.6320     8.4650    -2.2550 ca         1 V12      -0.087000
     27 CAJ         -6.2930     8.3380    -1.9480 ca         1 V12      -0.097000
     28 CAX         -5.5390     7.3490    -2.5630 ca         1 V12      -0.262200
     29 NAP         -4.2170     6.9570    -2.4810 na         1 V12       0.261700
     30 HAA1         3.2110    -0.1410     3.1350 hn         1 V12       0.222467
     31 HAA2         4.3290     0.8780     2.5160 hn         1 V12       0.222467
     32 HAF          4.9910    -0.1870    -0.0160 ha         1 V12       0.153000
     33 HAG          3.7700     0.1620    -2.1260 h4         1 V12       0.163000
     34 HBC          1.8060     0.0830    -3.2750 h2         1 V12       0.065700
     35 HBA          0.0940    -1.7190    -1.5760 h1         1 V12       0.032700
     36 HB0         -0.4300     0.8690    -4.4330 h1         1 V12       0.047700
     37 HAE          0.9090    -3.1190    -2.9820 ho         1 V12       0.402000
     38 HAZ         -1.8550    -1.0360    -2.5830 h1         1 V12       0.037700
     39 HAD         -1.9200    -2.0920    -4.4410 ho         1 V12       0.403000
     40 HAN1        -2.4580     1.2660    -2.1890 h1         1 V12       0.044200
     41 HAN2        -2.8820     1.0370    -3.8910 h1         1 V12       0.044200
     42 HAQ         -1.0330     3.1850    -3.7380 hn         1 V12       0.172500
     43 HAL1        -2.4290     5.3280    -4.5820 hc         1 V12       0.029200
     44 HAL2        -2.0030     5.5570    -2.8810 hc         1 V12       0.029200
     45 HAP         -3.4870     7.4460    -2.0020 hn         1 V12       0.120700
     46 HAK         -8.0110     6.0060    -4.5080 ha         1 V12       0.111000
     47 HAI         -9.2790     7.7290    -3.4080 ha         1 V12       0.107000
     48 HAH         -8.2210     9.2460    -1.7890 ha         1 V12       0.104000
     49 HAJ         -5.9020     9.0590    -1.2400 ha         1 V12       0.102000
     50 HAA3         4.5390    -0.7410     2.4010 hn         1 V12       0.222467
@<TRIPOS>BOND
     1     1     2 2   
     2     2     3 1   
     3     2     8 1   
     4     3     4 2   
     5     4     5 1   
     6     4     6 1   
     7     5    30 1   
     8     5    31 1   
     9     5    50 1   
    10     6     7 2   
    11     6    32 1   
    12     7     8 1   
    13     7    33 1   
    14     8     9 1   
    15     9    10 1   
    16     9    11 1   
    17     9    34 1   
    18    10    15 1   
    19    11    12 1   
    20    11    13 1   
    21    11    35 1   
    22    12    37 1   
    23    13    14 1   
    24    13    15 1   
    25    13    38 1   
    26    14    39 1   
    27    15    16 1   
    28    15    36 1   
    29    16    17 1   
    30    16    40 1   
    31    16    41 1   
    32    17    18 1   
    33    17    42 1   
    34    18    19 2   
    35    18    20 1   
    36    20    21 1   
    37    20    43 1   
    38    20    44 1   
    39    21    22 2   
    40    21    29 1   
    41    22    23 1   
    42    23    24 ar  
    43    23    28 ar  
    44    24    25 ar  
    45    24    46 1   
    46    25    26 ar  
    47    25    47 1   
    48    26    27 ar  
    49    26    48 1   
    50    27    28 ar  
    51    27    49 1   
    52    28    29 1   
    53    29    45 1   
@<TRIPOS>SUBSTRUCTURE
     1 V12         1 TEMP              0 ****  ****    0 ROOT
