@<TRIPOS>MOLECULE
V13
   28    28     1     0     0
SMALL
bcc


@<TRIPOS>ATOM
      1 O20          0.0000     0.0000     0.0000 o          1 V13      -0.535800
      2 S15          1.4210     0.0000     0.0000 sy         1 V13       0.872300
      3 O19          2.1530     0.0000     1.2180 o          1 V13      -0.535800
      4 C16          2.0580    -1.2710    -1.1260 c3         1 V13       0.000400
      5 C17          1.7390    -2.6580    -0.5630 c3         1 V13       0.264400
      6 O18          2.2410    -3.6590    -1.4500 oh         1 V13      -0.593800
      7 C1           1.8560     1.5250    -0.7680 ca         1 V13      -0.123500
      8 C6           3.0720     2.1220    -0.4830 ca         1 V13       0.210400
      9 F11          3.9260     1.5340     0.3830 f          1 V13      -0.063900
     10 C5           3.4140     3.3210    -1.0880 ca         1 V13       0.168400
     11 F12          4.6020     3.9020    -0.8100 f          1 V13      -0.080400
     12 C4           2.5400     3.9230    -1.9760 ca         1 V13      -0.234500
     13 S7           2.9750     5.4480    -2.7440 sy         1 V13       0.956200
     14 O9           3.9350     6.0640    -1.8970 o          1 V13      -0.465300
     15 N10          3.7630     5.0790    -4.1520 nz         1 V13      -0.133500
     16 O8           1.7540     6.0720    -3.1180 o          1 V13      -0.465300
     17 C3           1.3230     3.3270    -2.2590 ca         1 V13       0.168400
     18 F13          0.4700     3.9160    -3.1260 f          1 V13      -0.080400
     19 C2           0.9830     2.1250    -1.6590 ca         1 V13       0.210400
     20 F14         -0.2020     1.5400    -1.9410 f          1 V13      -0.063900
     21 H1           1.5920    -1.1600    -2.0970 h1         1 V13       0.071700
     22 H2           3.1310    -1.1600    -1.2250 h1         1 V13       0.071700
     23 H3           2.2050    -2.7690     0.4080 h1         1 V13       0.006200
     24 H4           0.6660    -2.7690    -0.4630 h1         1 V13       0.006200
     25 H5           2.0450    -4.5130    -1.1020 ho         1 V13       0.413000
     26 H6           3.1090     4.7140    -4.8150 hn         1 V13       0.318467
     27 H7           4.1880     5.9060    -4.5240 hn         1 V13       0.318467
     28 H103         4.4700     4.3950    -3.9690 hn         1 V13       0.318467
@<TRIPOS>BOND
     1     1     2 2   
     2     2     3 2   
     3     2     4 1   
     4     2     7 1   
     5     4     5 1   
     6     4    21 1   
     7     4    22 1   
     8     5     6 1   
     9     5    23 1   
    10     5    24 1   
    11     6    25 1   
    12     7     8 ar  
    13     7    19 ar  
    14     8     9 1   
    15     8    10 ar  
    16    10    11 1   
    17    10    12 ar  
    18    12    13 1   
    19    12    17 ar  
    20    13    14 2   
    21    13    15 1   
    22    13    16 2   
    23    15    26 1   
    24    15    27 1   
    25    15    28 1   
    26    17    18 1   
    27    17    19 ar  
    28    19    20 1   
@<TRIPOS>SUBSTRUCTURE
     1 V13         1 TEMP              0 ****  ****    0 ROOT
