@<TRIPOS>MOLECULE
molecule
   28    28     1     0     0
SMALL
bcc


@<TRIPOS>ATOM
      1 O20          0.0000     0.0000     0.0000 o          1 V13      -0.559800
      2 S15          1.4210     0.0000     0.0000 sy         1 V13       1.164300
      3 O19          2.1530     0.0000     1.2180 o          1 V13      -0.559800
      4 C16          2.0580    -1.2710    -1.1260 c3         1 V13      -0.199600
      5 C17          1.7390    -2.6580    -0.5630 c3         1 V13       0.170400
      6 O18          2.2410    -3.6590    -1.4500 oh         1 V13      -0.596800
      7 C1           1.8560     1.5250    -0.7680 ca         1 V13      -0.265500
      8 C6           3.0720     2.1220    -0.4830 ca         1 V13       0.213900
      9 F11          3.9260     1.5340     0.3830 f          1 V13      -0.054900
     10 C5           3.4140     3.3210    -1.0880 ca         1 V13       0.175400
     11 F12          4.6020     3.9020    -0.8100 f          1 V13      -0.081900
     12 C4           2.5400     3.9230    -1.9760 ca         1 V13      -0.360500
     13 S7           2.9750     5.4480    -2.7440 sy         1 V13       1.249200
     14 O9           3.9350     6.0640    -1.8970 o          1 V13      -0.482300
     15 N10          3.7630     5.0790    -4.1520 nz         1 V13      -0.811500
     16 O8           1.7540     6.0720    -3.1180 o          1 V13      -0.482300
     17 C3           1.3230     3.3270    -2.2590 ca         1 V13       0.175400
     18 F13          0.4700     3.9160    -3.1260 f          1 V13      -0.081900
     19 C2           0.9830     2.1250    -1.6590 ca         1 V13       0.213900
     20 F14         -0.2020     1.5400    -1.9410 f          1 V13      -0.054900
     21 H1           1.5920    -1.1600    -2.0970 h1         1 V13       0.111700
     22 H2           3.1310    -1.1600    -1.2250 h1         1 V13       0.111700
     23 H3           2.2050    -2.7690     0.4080 h1         1 V13       0.043700
     24 H4           0.6660    -2.7690    -0.4630 h1         1 V13       0.043700
     25 H5           2.0450    -4.5130    -1.1020 ho         1 V13       0.425000
     26 H6           3.1090     4.7140    -4.8150 hn         1 V13       0.497467
     27 H7           4.1880     5.9060    -4.5240 hn         1 V13       0.497467
     28 H103         4.4700     4.3950    -3.9690 hn         1 V13       0.497467
@<TRIPOS>BOND
     1     5     4 1
     2     5     6 1
     3     9     8 1
     4     1     2 2
     5     4     2 1
     6     2     7 1
     7     2     3 2
     8    11    10 1
     9     8    10 ar
    10     8     7 ar
    11    10    12 ar
    12     7    19 ar
    13    19    20 1
    14    19    17 ar
    15    12    17 ar
    16    12    13 1
    17    16    13 2
    18    14    13 2
    19    17    18 1
    20    13    15 1
    21     4    21 1
    22     4    22 1
    23     5    23 1
    24     5    24 1
    25     6    25 1
    26    15    26 1
    27    15    27 1
    28    28    15 1
@<TRIPOS>SUBSTRUCTURE
     1 V13         1 TEMP              0 ****  ****    0 ROOT
