@<TRIPOS>MOLECULE
molecule
   52    53     1     0     0
SMALL
bcc


@<TRIPOS>ATOM
      1 F20          0.0000     0.0000     0.0000 f          1 V14      -0.095900
      2 C5           1.3510     0.0000     0.0000 ca         1 V14       0.172900
      3 C4           2.0430     0.0000     1.1970 ca         1 V14      -0.368500
      4 S7           1.1630    -0.0020     2.7230 sy         1 V14       1.246200
      5 O9          -0.1210     0.5420     2.4460 o          1 V14      -0.493300
      6 N10          0.9180    -1.5840     3.1460 nz         1 V14      -0.812500
      7 O8           2.0440     0.5420     3.6950 o          1 V14      -0.493300
      8 C3           3.4280    -0.0000     1.1970 ca         1 V14       0.167900
      9 F12          4.1010    -0.0010     2.3680 f          1 V14      -0.088900
     10 C2           4.1240    -0.0000    -0.0010 ca         1 V14       0.196900
     11 F13          5.4740    -0.0000     0.0020 f          1 V14      -0.055900
     12 C6           2.0470    -0.0050    -1.2050 ca         1 V14       0.220600
     13 C1           3.4340     0.0010    -1.2020 ca         1 V14      -0.224500
     14 S11          4.3190    -0.0050    -2.7260 sy         1 V14       1.179300
     15 O16          5.6640    -0.2690    -2.3500 o          1 V14      -0.573800
     16 O17          3.5950    -0.9100    -3.5480 o          1 V14      -0.573800
     17 C15          4.1560     1.6910    -3.3500 c3         1 V14      -0.194600
     18 C18          4.8780     1.8120    -4.6930 c3         1 V14       0.169400
     19 O21          4.7500     3.1470    -5.1860 oh         1 V14      -0.595800
     20 N19          1.3480    -0.0040    -2.4180 nu         1 V14      -0.816600
     21 C14          0.5340    -1.2190    -2.5570 c3         1 V14       0.197500
     22 C28         -0.6370    -0.9420    -3.5020 c3         1 V14      -0.077900
     23 C27         -1.6890    -2.0410    -3.3440 c3         1 V14      -0.087900
     24 C26         -1.9020    -2.3370    -1.8580 c3         1 V14      -0.090400
     25 C25         -1.4000    -3.7460    -1.5410 c3         1 V14      -0.085400
     26 C24          0.1290    -3.7410    -1.4850 c3         1 V14      -0.090400
     27 C23          0.6910    -3.6870    -2.9070 c3         1 V14      -0.087900
     28 C22          1.3950    -2.3480    -3.1290 c3         1 V14      -0.077900
     29 H1           0.0470    -1.9000     2.7670 hn         1 V14       0.497467
     30 H2           0.8960    -1.6630     4.1440 hn         1 V14       0.497467
     31 H3           3.1070     1.9280    -3.4810 h1         1 V14       0.111700
     32 H4           4.5960     2.3810    -2.6400 h1         1 V14       0.111700
     33 H5           5.9270     1.5750    -4.5620 h1         1 V14       0.040200
     34 H6           4.4380     1.1220    -5.4030 h1         1 V14       0.040200
     35 H7           5.1800     3.2170    -6.0210 ho         1 V14       0.422000
     36 H8           1.0300     0.8600    -2.8110 hn         1 V14       0.454800
     37 H9           0.1510    -1.5150    -1.5880 h1         1 V14       0.049700
     38 H10         -0.2800    -0.9300    -4.5240 hc         1 V14       0.060950
     39 H11         -1.0790     0.0160    -3.2570 hc         1 V14       0.060950
     40 H12         -2.6230    -1.7110    -3.7820 hc         1 V14       0.059950
     41 H13         -1.3480    -2.9400    -3.8440 hc         1 V14       0.059950
     42 H14         -1.3520    -1.6160    -1.2660 hc         1 V14       0.032950
     43 H15         -2.9580    -2.2710    -1.6270 hc         1 V14       0.032950
     44 H16         -1.7930    -4.0610    -0.5820 hc         1 V14       0.047700
     45 H17         -1.7290    -4.4290    -2.3140 hc         1 V14       0.047700
     46 H18          0.4660    -2.8720    -0.9330 hc         1 V14       0.032950
     47 H19          0.4750    -4.6430    -0.9960 hc         1 V14       0.032950
     48 H20          1.4010    -4.4940    -3.0440 hc         1 V14       0.059950
     49 H21         -0.1200    -3.7890    -3.6190 hc         1 V14       0.059950
     50 H22          1.5390    -2.1880    -4.1900 hc         1 V14       0.060950
     51 H23          2.3550    -2.3580    -2.6260 hc         1 V14       0.060950
     52 H103         1.6720    -2.1430     2.7980 hn         1 V14       0.497467
@<TRIPOS>BOND
     1    18    19 1
     2    18    17 1
     3    17    14 1
     4    16    14 2
     5    28    27 1
     6    28    21 1
     7    27    26 1
     8    20    21 1
     9    20    12 1
    10    26    25 1
    11    14    13 1
    12    14    15 2
    13    21    22 1
    14    12    13 ar
    15    12     2 ar
    16    13    10 ar
    17     1     2 1
    18    25    24 1
    19     2     3 ar
    20    24    23 1
    21    22    23 1
    22    10    11 1
    23    10     8 ar
    24     3     8 ar
    25     3     4 1
    26     8     9 1
    27     6     4 1
    28     4     5 2
    29     4     7 2
    30     6    29 1
    31     6    30 1
    32    17    31 1
    33    17    32 1
    34    18    33 1
    35    18    34 1
    36    19    35 1
    37    20    36 1
    38    21    37 1
    39    22    38 1
    40    22    39 1
    41    23    40 1
    42    23    41 1
    43    24    42 1
    44    24    43 1
    45    25    44 1
    46    25    45 1
    47    26    46 1
    48    26    47 1
    49    27    48 1
    50    27    49 1
    51    28    50 1
    52    28    51 1
    53    52     6 1
@<TRIPOS>SUBSTRUCTURE
     1 V14         1 TEMP              0 ****  ****    0 ROOT
