@<TRIPOS>MOLECULE
V14
   52    53     1     0     0
SMALL
bcc


@<TRIPOS>ATOM
      1 F20          0.0000     0.0000     0.0000 f          1 V14      -0.092900
      2 C5           1.3510     0.0000     0.0000 ca         1 V14       0.154900
      3 C4           2.0430     0.0000     1.1970 ca         1 V14      -0.236500
      4 S7           1.1630    -0.0020     2.7230 sy         1 V14       0.951200
      5 O9          -0.1210     0.5420     2.4460 o          1 V14      -0.472800
      6 N10          0.9180    -1.5840     3.1460 nz         1 V14      -0.139500
      7 O8           2.0440     0.5420     3.6950 o          1 V14      -0.472800
      8 C3           3.4280    -0.0000     1.1970 ca         1 V14       0.158900
      9 F12          4.1010    -0.0010     2.3680 f          1 V14      -0.084900
     10 C2           4.1240    -0.0000    -0.0010 ca         1 V14       0.199900
     11 F13          5.4740    -0.0000     0.0020 f          1 V14      -0.064900
     12 C6           2.0470    -0.0050    -1.2050 ca         1 V14       0.119600
     13 C1           3.4340     0.0010    -1.2020 ca         1 V14      -0.086500
     14 S11          4.3190    -0.0050    -2.7260 sy         1 V14       0.872300
     15 O16          5.6640    -0.2690    -2.3500 o          1 V14      -0.548300
     16 O17          3.5950    -0.9100    -3.5480 o          1 V14      -0.548300
     17 C15          4.1560     1.6910    -3.3500 c3         1 V14       0.004400
     18 C18          4.8780     1.8120    -4.6930 c3         1 V14       0.262400
     19 O21          4.7500     3.1470    -5.1860 oh         1 V14      -0.591800
     20 N19          1.3480    -0.0040    -2.4180 nu         1 V14      -0.466600
     21 C14          0.5340    -1.2190    -2.5570 c3         1 V14       0.084500
     22 C28         -0.6370    -0.9420    -3.5020 c3         1 V14      -0.028400
     23 C27         -1.6890    -2.0410    -3.3440 c3         1 V14      -0.043900
     24 C26         -1.9020    -2.3370    -1.8580 c3         1 V14      -0.042900
     25 C25         -1.4000    -3.7460    -1.5410 c3         1 V14      -0.027400
     26 C24          0.1290    -3.7410    -1.4850 c3         1 V14      -0.042900
     27 C23          0.6910    -3.6870    -2.9070 c3         1 V14      -0.043900
     28 C22          1.3950    -2.3480    -3.1290 c3         1 V14      -0.028400
     29 H1           0.0470    -1.9000     2.7670 hn         1 V14       0.319800
     30 H2           0.8960    -1.6630     4.1440 hn         1 V14       0.319800
     31 H3           3.1070     1.9280    -3.4810 h1         1 V14       0.073700
     32 H4           4.5960     2.3810    -2.6400 h1         1 V14       0.073700
     33 H5           5.9270     1.5750    -4.5620 h1         1 V14       0.003700
     34 H6           4.4380     1.1220    -5.4030 h1         1 V14       0.003700
     35 H7           5.1800     3.2170    -6.0210 ho         1 V14       0.410000
     36 H8           1.0300     0.8600    -2.8110 hn         1 V14       0.318800
     37 H9           0.1510    -1.5150    -1.5880 h1         1 V14       0.050700
     38 H10         -0.2800    -0.9300    -4.5240 hc         1 V14       0.034950
     39 H11         -1.0790     0.0160    -3.2570 hc         1 V14       0.034950
     40 H12         -2.6230    -1.7110    -3.7820 hc         1 V14       0.035450
     41 H13         -1.3480    -2.9400    -3.8440 hc         1 V14       0.035450
     42 H14         -1.3520    -1.6160    -1.2660 hc         1 V14       0.010200
     43 H15         -2.9580    -2.2710    -1.6270 hc         1 V14       0.010200
     44 H16         -1.7930    -4.0610    -0.5820 hc         1 V14       0.019700
     45 H17         -1.7290    -4.4290    -2.3140 hc         1 V14       0.019700
     46 H18          0.4660    -2.8720    -0.9330 hc         1 V14       0.010200
     47 H19          0.4750    -4.6430    -0.9960 hc         1 V14       0.010200
     48 H20          1.4010    -4.4940    -3.0440 hc         1 V14       0.035450
     49 H21         -0.1200    -3.7890    -3.6190 hc         1 V14       0.035450
     50 H22          1.5390    -2.1880    -4.1900 hc         1 V14       0.034950
     51 H23          2.3550    -2.3580    -2.6260 hc         1 V14       0.034950
     52 H103         1.6720    -2.1430     2.7980 hn         1 V14       0.319800
@<TRIPOS>BOND
     1     1     2 1   
     2     2     3 ar  
     3     2    12 ar  
     4     3     4 1   
     5     3     8 ar  
     6     4     5 2   
     7     4     6 1   
     8     4     7 2   
     9     6    29 1   
    10     6    30 1   
    11     6    52 1   
    12     8     9 1   
    13     8    10 ar  
    14    10    11 1   
    15    10    13 ar  
    16    12    13 ar  
    17    12    20 1   
    18    13    14 1   
    19    14    15 2   
    20    14    16 2   
    21    14    17 1   
    22    17    18 1   
    23    17    31 1   
    24    17    32 1   
    25    18    19 1   
    26    18    33 1   
    27    18    34 1   
    28    19    35 1   
    29    20    21 1   
    30    20    36 1   
    31    21    22 1   
    32    21    28 1   
    33    21    37 1   
    34    22    23 1   
    35    22    38 1   
    36    22    39 1   
    37    23    24 1   
    38    23    40 1   
    39    23    41 1   
    40    24    25 1   
    41    24    42 1   
    42    24    43 1   
    43    25    26 1   
    44    25    44 1   
    45    25    45 1   
    46    26    27 1   
    47    26    46 1   
    48    26    47 1   
    49    27    28 1   
    50    27    48 1   
    51    27    49 1   
    52    28    50 1   
    53    28    51 1   
@<TRIPOS>SUBSTRUCTURE
     1 V14         1 TEMP              0 ****  ****    0 ROOT
