@<TRIPOS>MOLECULE
V15
   30    31     1     0     0
SMALL
bcc


@<TRIPOS>ATOM
      1 N1           0.0000     0.0000     0.0000 ns         1 V15       0.034600
      2 C2           1.3600     0.0000     0.0000 cc         1 V15       0.002800
      3 C3          -0.6710     0.0010     1.1720 c          1 V15       0.569700
      4 C4           0.0650     0.0000     2.3710 cc         1 V15      -0.130200
      5 C5           1.4270     0.0000     2.3090 cd         1 V15       0.098400
      6 N6           2.0420     0.0000     1.1280 nd         1 V15      -0.401300
      7 C8           2.7970    -1.5410     6.4360 ca         1 V15      -0.094000
      8 C9           3.5420    -1.5420     7.6000 ca         1 V15      -0.089000
      9 C10          4.9190    -1.4380     7.5410 ca         1 V15      -0.083000
     10 C11          5.5520    -1.3340     6.3160 ca         1 V15      -0.089000
     11 C12          4.8080    -1.3330     5.1520 ca         1 V15      -0.094000
     12 N14          2.0330    -0.0010    -1.1930 nz         1 V15       0.213400
     13 C15          2.2390    -0.0000     3.5780 c3         1 V15       0.023800
     14 C7           3.4300    -1.4370     5.2110 ca         1 V15      -0.120300
     15 C16          2.6190    -1.4370     3.9410 c3         1 V15       0.045900
     16 O15         -1.8900     0.0020     1.1900 o          1 V15      -0.580500
     17 H1          -0.5020     0.0000    -0.8660 hn         1 V15       0.190500
     18 H141         2.9990     0.2030    -1.0320 hn         1 V15       0.221800
     19 H142         1.9490    -0.9020    -1.6220 hn         1 V15       0.221800
     20 H4          -0.4420     0.0010     3.3280 ha         1 V15       0.171000
     21 H151         3.1390     0.5850     3.4310 hc         1 V15       0.046200
     22 H152         1.6540     0.4320     4.3810 hc         1 V15       0.046200
     23 H10          5.5020    -1.4390     8.4540 ha         1 V15       0.112000
     24 H11          6.6310    -1.2530     6.2690 ha         1 V15       0.110500
     25 H12          5.3040    -1.2520     4.1920 ha         1 V15       0.102000
     26 H161         1.7190    -2.0220     4.0870 hc         1 V15       0.018200
     27 H162         3.2050    -1.8690     3.1380 hc         1 V15       0.018200
     28 H8           1.7180    -1.6220     6.4830 ha         1 V15       0.102000
     29 H143         1.6510     0.7040    -1.7920 hn         1 V15       0.221800
     30 H9           3.0460    -1.6230     8.5590 ha         1 V15       0.110500
@<TRIPOS>BOND
     1     1     2 1   
     2     1     3 1   
     3     1    17 1   
     4     2     6 2   
     5     2    12 1   
     6     3     4 1   
     7     3    16 2   
     8     4     5 2   
     9     4    20 1   
    10     5     6 1   
    11     5    13 1   
    12     7     8 ar  
    13     7    14 ar  
    14     7    28 1   
    15     8     9 ar  
    16     8    30 1   
    17     9    10 ar  
    18     9    23 1   
    19    10    11 ar  
    20    10    24 1   
    21    11    14 ar  
    22    11    25 1   
    23    12    18 1   
    24    12    19 1   
    25    12    29 1   
    26    13    15 1   
    27    13    21 1   
    28    13    22 1   
    29    14    15 1   
    30    15    26 1   
    31    15    27 1   
@<TRIPOS>SUBSTRUCTURE
     1 V15         1 TEMP              0 ****  ****    0 ROOT
