@<TRIPOS>MOLECULE
molecule
   33    33     1     0     0
SMALL
bcc


@<TRIPOS>ATOM
      1 N            0.0000     0.0000     0.0000 nu         1 V16      -0.665600
      2 C            7.7720     2.8850     2.6810 c3         1 V16      -0.091100
      3 O           -2.5290    -0.0980    -0.9140 oh         1 V16      -0.453500
      4 C1           7.2900     1.4430     2.5140 c3         1 V16      -0.085400
      5 C10          2.0870     0.0110    -1.9340 c3         1 V16      -0.054800
      6 C11          3.6760     0.0000     0.0000 ca         1 V16      -0.108000
      7 C2           5.8440     1.4420     2.0150 c3         1 V16      -0.077400
      8 C3           5.3620    -0.0000     1.8500 c3         1 V16      -0.037100
      9 C4           3.9370     0.0000     1.3580 ca         1 V16      -0.082300
     10 C5           2.8940     0.0000     2.2660 ca         1 V16      -0.116000
     11 C6           1.5870     0.0010     1.8190 ca         1 V16      -0.112000
     12 C7           1.3220     0.0000     0.4550 ca         1 V16       0.104600
     13 C8          -1.0390    -0.1190     0.8980 c2         1 V16       0.362100
     14 C9           2.3720     0.0060    -0.4540 ca         1 V16      -0.106300
     15 N1          -2.2540    -0.2190     0.4700 n2         1 V16      -0.528200
     16 H1           7.1430     3.3950     3.4000 hc         1 V16       0.034033
     17 H2           8.7970     2.8850     3.0330 hc         1 V16       0.034033
     18 H3           7.7190     3.3960     1.7270 hc         1 V16       0.034033
     19 H4          -3.4490    -0.2420    -1.0650 ho         1 V16       0.432000
     20 H5           7.9200     0.9320     1.7950 hc         1 V16       0.040200
     21 H6           7.3440     0.9320     3.4680 hc         1 V16       0.040200
     22 H7           1.4860    -0.8530    -2.1890 hc         1 V16       0.047367
     23 H8           3.0210    -0.0240    -2.4820 hc         1 V16       0.047367
     24 H9           1.5490     0.9150    -2.1950 hc         1 V16       0.047367
     25 H10          4.4950    -0.0180    -0.7080 ha         1 V16       0.138000
     26 H11          5.7910     1.9530     1.0610 hc         1 V16       0.045200
     27 H12          5.2150     1.9530     2.7340 hc         1 V16       0.045200
     28 H13          5.9920    -0.5110     1.1310 hc         1 V16       0.050700
     29 H14          5.4150    -0.5100     2.8040 hc         1 V16       0.050700
     30 H15          3.1020     0.0010     3.3290 ha         1 V16       0.140000
     31 H16          0.7710     0.0010     2.5300 ha         1 V16       0.171000
     32 H17         -0.7680     0.8320     0.4540 h5         1 V16       0.237800
     33 H19         -0.1910     0.0590    -0.9810 hn         1 V16       0.418800
@<TRIPOS>BOND
     1    15    13 2
     2    15     3 1
     3    13     1 1
     4    11    10 ar
     5    11    12 ar
     6    10     9 ar
     7     1    12 1
     8    12    14 ar
     9     9     8 1
    10     9     6 ar
    11     8     7 1
    12    14     6 ar
    13    14     5 1
    14     2     4 1
    15     7     4 1
    16     2    16 1
    17     2    17 1
    18     2    18 1
    19     3    19 1
    20     4    20 1
    21     4    21 1
    22     5    22 1
    23     5    23 1
    24     5    24 1
    25     6    25 1
    26     7    26 1
    27     7    27 1
    28     8    28 1
    29     8    29 1
    30    10    30 1
    31    11    31 1
    32    13    32 1
    33     1    33 1
@<TRIPOS>SUBSTRUCTURE
     1 V16         1 TEMP              0 ****  ****    0 ROOT
