@<TRIPOS>MOLECULE
V16
   33    33     1     0     0
SMALL
bcc


@<TRIPOS>ATOM
      1 N            0.0000     0.0000     0.0000 nu         1 V16      -0.299600
      2 C            7.7720     2.8850     2.6810 c3         1 V16       0.006900
      3 O           -2.5290    -0.0980    -0.9140 oh         1 V16      -0.388500
      4 C1           7.2900     1.4430     2.5140 c3         1 V16      -0.029400
      5 C10          2.0870     0.0110    -1.9340 c3         1 V16       0.065200
      6 C11          3.6760     0.0000     0.0000 ca         1 V16      -0.057000
      7 C2           5.8440     1.4420     2.0150 c3         1 V16      -0.028400
      8 C3           5.3620    -0.0000     1.8500 c3         1 V16       0.034900
      9 C4           3.9370     0.0000     1.3580 ca         1 V16      -0.122300
     10 C5           2.8940     0.0000     2.2660 ca         1 V16      -0.060000
     11 C6           1.5870     0.0010     1.8190 ca         1 V16      -0.163000
     12 C7           1.3220     0.0000     0.4550 ca         1 V16       0.019600
     13 C8          -1.0390    -0.1190     0.8980 c2         1 V16       0.464100
     14 C9           2.3720     0.0060    -0.4540 ca         1 V16      -0.140300
     15 N1          -2.2540    -0.2190     0.4700 n2         1 V16      -0.505200
     16 H1           8.7970     2.8850     3.0340 hc         1 V16       0.000700
     17 H2           7.1430     3.3950     3.4000 hc         1 V16       0.000700
     18 H3           7.7190     3.3960     1.7270 hc         1 V16       0.000700
     19 H4          -3.4590    -0.1640    -1.0560 ho         1 V16       0.421000
     20 H5           7.9200     0.9320     1.7950 hc         1 V16       0.011700
     21 H6           7.3440     0.9320     3.4680 hc         1 V16       0.011700
     22 H7           1.4940    -0.8580    -2.1910 hc         1 V16       0.009033
     23 H8           3.0210    -0.0150    -2.4820 hc         1 V16       0.009033
     24 H9           1.5410     0.9100    -2.1940 hc         1 V16       0.009033
     25 H10          4.4950    -0.0180    -0.7080 ha         1 V16       0.109000
     26 H11          5.7910     1.9530     1.0610 hc         1 V16       0.017700
     27 H12          5.2150     1.9530     2.7340 hc         1 V16       0.017700
     28 H13          5.9920    -0.5110     1.1310 hc         1 V16       0.017200
     29 H14          5.4150    -0.5100     2.8040 hc         1 V16       0.017200
     30 H15          3.1020     0.0010     3.3290 ha         1 V16       0.106000
     31 H16          0.7710     0.0010     2.5300 ha         1 V16       0.115000
     32 H17         -0.8290    -0.2110     1.9570 h5         1 V16       0.022800
     33 H19         -0.1910     0.0670    -0.9800 hn         1 V16       0.307800
@<TRIPOS>BOND
     1     1    12 1   
     2     1    13 1   
     3     1    33 1   
     4     2     4 1   
     5     2    16 1   
     6     2    17 1   
     7     2    18 1   
     8     3    15 1   
     9     3    19 1   
    10     4     7 1   
    11     4    20 1   
    12     4    21 1   
    13     5    14 1   
    14     5    22 1   
    15     5    23 1   
    16     5    24 1   
    17     6     9 ar  
    18     6    14 ar  
    19     6    25 1   
    20     7     8 1   
    21     7    26 1   
    22     7    27 1   
    23     8     9 1   
    24     8    28 1   
    25     8    29 1   
    26     9    10 ar  
    27    10    11 ar  
    28    10    30 1   
    29    11    12 ar  
    30    11    31 1   
    31    12    14 ar  
    32    13    15 2   
    33    13    32 1   
@<TRIPOS>SUBSTRUCTURE
     1 V16         1 TEMP              0 ****  ****    0 ROOT
