@<TRIPOS>MOLECULE
V1F
   52    54     1     0     0
SMALL
bcc


@<TRIPOS>ATOM
      1 F26          0.0000     0.0000     0.0000 f          1 V1F      -0.093900
      2 C5           1.3510     0.0000     0.0000 ca         1 V1F       0.155900
      3 C4           2.0430     0.0000     1.1970 ca         1 V1F      -0.241500
      4 S7           1.1620     0.0000     2.7230 sy         1 V1F       0.950200
      5 O9          -0.1210     0.5450     2.4460 o          1 V1F      -0.473300
      6 N10          0.9180    -1.5810     3.1480 nz         1 V1F      -0.130500
      7 O8           2.0440     0.5450     3.6950 o          1 V1F      -0.473300
      8 C3           3.4280    -0.0010     1.1970 ca         1 V1F       0.165900
      9 F12          4.1020    -0.0010     2.3680 f          1 V1F      -0.084900
     10 C2           4.1240    -0.0010    -0.0020 ca         1 V1F       0.193900
     11 F13          5.4740    -0.0030     0.0020 f          1 V1F      -0.064900
     12 C6           2.0470    -0.0060    -1.2040 ca         1 V1F       0.116600
     13 C1           3.4350    -0.0020    -1.2020 ca         1 V1F      -0.075500
     14 S11          4.3190    -0.0080    -2.7260 sy         1 V1F       0.867300
     15 O22          5.6500    -0.3430    -2.3560 o          1 V1F      -0.554800
     16 O23          3.5570    -0.8610    -3.5690 o          1 V1F      -0.554800
     17 C21          4.2320     1.7070    -3.3080 c3         1 V1F       0.026400
     18 C24          4.8940     1.8130    -4.6830 c3         1 V1F       0.068900
     19 C30          4.8210     3.2380    -5.1670 ca         1 V1F      -0.118300
     20 C29          5.8390     4.1240    -4.8650 ca         1 V1F      -0.093500
     21 C28          5.7710     5.4320    -5.3080 ca         1 V1F      -0.093000
     22 C32          3.7390     3.6590    -5.9180 ca         1 V1F      -0.093500
     23 C31          3.6730     4.9670    -6.3630 ca         1 V1F      -0.093000
     24 C27          4.6870     5.8540    -6.0540 ca         1 V1F      -0.088000
     25 N25          1.3480    -0.0070    -2.4180 nu         1 V1F      -0.487600
     26 C14          0.8910    -1.3600    -2.7610 c3         1 V1F       0.236100
     27 C15          0.1450    -1.3200    -4.0700 ca         1 V1F      -0.134300
     28 C20          0.8260    -1.4980    -5.2600 ca         1 V1F      -0.082500
     29 C19          0.1420    -1.4620    -6.4610 ca         1 V1F      -0.101000
     30 C18         -1.2240    -1.2470    -6.4710 ca         1 V1F      -0.079000
     31 C17         -1.9050    -1.0700    -5.2810 ca         1 V1F      -0.101000
     32 C16         -1.2210    -1.1130    -4.0800 ca         1 V1F      -0.082500
     33 H1           0.2390    -1.9900     2.5360 hn         1 V1F       0.317467
     34 H2           0.5870    -1.6260     4.0910 hn         1 V1F       0.317467
     35 H3           3.1950     2.0110    -3.3820 h1         1 V1F       0.069700
     36 H4           4.7480     2.3520    -2.6070 h1         1 V1F       0.069700
     37 H5           5.9320     1.5100    -4.6080 hc         1 V1F       0.035200
     38 H6           4.3790     1.1670    -5.3830 hc         1 V1F       0.035200
     39 H7           6.6890     3.7940    -4.2800 ha         1 V1F       0.106000
     40 H8           6.5670     6.1260    -5.0690 ha         1 V1F       0.108500
     41 H9           2.9450     2.9640    -6.1600 ha         1 V1F       0.106000
     42 H10          2.8240     5.2970    -6.9490 ha         1 V1F       0.108500
     43 H11          4.6350     6.8790    -6.4010 ha         1 V1F       0.109000
     44 H12          0.8000     0.7880    -2.6800 hn         1 V1F       0.315800
     45 H13          0.2350    -1.7280    -1.9820 h1         1 V1F       0.018700
     46 H14          1.7470    -2.0180    -2.8530 h1         1 V1F       0.018700
     47 H15          1.8970    -1.6670    -5.2510 ha         1 V1F       0.115500
     48 H16          0.6760    -1.6010    -7.3930 ha         1 V1F       0.109500
     49 H17         -1.7600    -1.2160    -7.4120 ha         1 V1F       0.109000
     50 H18         -2.9750    -0.9050    -5.2890 ha         1 V1F       0.109500
     51 H19         -1.7550    -0.9740    -3.1480 ha         1 V1F       0.115500
     52 H103         1.7760    -2.0870     3.0570 hn         1 V1F       0.317467
@<TRIPOS>BOND
     1     1     2 1   
     2     2     3 ar  
     3     2    12 ar  
     4     3     4 1   
     5     3     8 ar  
     6     4     5 2   
     7     4     6 1   
     8     4     7 2   
     9     6    33 1   
    10     6    34 1   
    11     6    52 1   
    12     8     9 1   
    13     8    10 ar  
    14    10    11 1   
    15    10    13 ar  
    16    12    13 ar  
    17    12    25 1   
    18    13    14 1   
    19    14    15 2   
    20    14    16 2   
    21    14    17 1   
    22    17    18 1   
    23    17    35 1   
    24    17    36 1   
    25    18    19 1   
    26    18    37 1   
    27    18    38 1   
    28    19    20 ar  
    29    19    22 ar  
    30    20    21 ar  
    31    20    39 1   
    32    21    24 ar  
    33    21    40 1   
    34    22    23 ar  
    35    22    41 1   
    36    23    24 ar  
    37    23    42 1   
    38    24    43 1   
    39    25    26 1   
    40    25    44 1   
    41    26    27 1   
    42    26    45 1   
    43    26    46 1   
    44    27    28 ar  
    45    27    32 ar  
    46    28    29 ar  
    47    28    47 1   
    48    29    30 ar  
    49    29    48 1   
    50    30    31 ar  
    51    30    49 1   
    52    31    32 ar  
    53    31    50 1   
    54    32    51 1   
@<TRIPOS>SUBSTRUCTURE
     1 V1F         1 TEMP              0 ****  ****    0 ROOT
