@<TRIPOS>MOLECULE
molecule
   52    54     1     0     0
SMALL
bcc


@<TRIPOS>ATOM
      1 F26          0.0000     0.0000     0.0000 f          1 V1F      -0.097900
      2 C5           1.3510     0.0000     0.0000 ca         1 V1F       0.171900
      3 C4           2.0430     0.0000     1.1970 ca         1 V1F      -0.371500
      4 S7           1.1620     0.0000     2.7230 sy         1 V1F       1.243200
      5 O9          -0.1210     0.5450     2.4460 o          1 V1F      -0.492300
      6 N10          0.9180    -1.5810     3.1480 nz         1 V1F      -0.809500
      7 O8           2.0440     0.5450     3.6950 o          1 V1F      -0.492300
      8 C3           3.4280    -0.0010     1.1970 ca         1 V1F       0.171900
      9 F12          4.1020    -0.0010     2.3680 f          1 V1F      -0.088900
     10 C2           4.1240    -0.0010    -0.0020 ca         1 V1F       0.192900
     11 F13          5.4740    -0.0030     0.0020 f          1 V1F      -0.056900
     12 C6           2.0470    -0.0060    -1.2040 ca         1 V1F       0.212600
     13 C1           3.4350    -0.0020    -1.2020 ca         1 V1F      -0.216500
     14 S11          4.3190    -0.0080    -2.7260 sy         1 V1F       1.174300
     15 O22          5.6500    -0.3430    -2.3560 o          1 V1F      -0.583300
     16 O23          3.5570    -0.8610    -3.5690 o          1 V1F      -0.583300
     17 C21          4.2320     1.7070    -3.3080 c3         1 V1F      -0.177600
     18 C24          4.8940     1.8130    -4.6830 c3         1 V1F      -0.010100
     19 C30          4.8210     3.2380    -5.1670 ca         1 V1F      -0.095300
     20 C29          5.8390     4.1240    -4.8650 ca         1 V1F      -0.121000
     21 C28          5.7710     5.4320    -5.3080 ca         1 V1F      -0.121500
     22 C32          3.7390     3.6590    -5.9180 ca         1 V1F      -0.121000
     23 C31          3.6730     4.9670    -6.3630 ca         1 V1F      -0.121500
     24 C27          4.6870     5.8540    -6.0540 ca         1 V1F      -0.116000
     25 N25          1.3480    -0.0070    -2.4180 nu         1 V1F      -0.821600
     26 C14          0.8910    -1.3600    -2.7610 c3         1 V1F       0.273100
     27 C15          0.1450    -1.3200    -4.0700 ca         1 V1F      -0.123300
     28 C20          0.8260    -1.4980    -5.2600 ca         1 V1F      -0.107500
     29 C19          0.1420    -1.4620    -6.4610 ca         1 V1F      -0.129500
     30 C18         -1.2240    -1.2470    -6.4710 ca         1 V1F      -0.106000
     31 C17         -1.9050    -1.0700    -5.2810 ca         1 V1F      -0.129500
     32 C16         -1.2210    -1.1130    -4.0800 ca         1 V1F      -0.107500
     33 H1           0.2390    -1.9900     2.5360 hn         1 V1F       0.496467
     34 H2           0.5870    -1.6260     4.0910 hn         1 V1F       0.496467
     35 H3           3.1950     2.0110    -3.3820 h1         1 V1F       0.106700
     36 H4           4.7480     2.3520    -2.6070 h1         1 V1F       0.106700
     37 H5           5.9320     1.5100    -4.6080 hc         1 V1F       0.067700
     38 H6           4.3790     1.1670    -5.3830 hc         1 V1F       0.067700
     39 H7           6.6890     3.7940    -4.2800 ha         1 V1F       0.131000
     40 H8           6.5670     6.1260    -5.0690 ha         1 V1F       0.138000
     41 H9           2.9450     2.9640    -6.1600 ha         1 V1F       0.131000
     42 H10          2.8240     5.2970    -6.9490 ha         1 V1F       0.138000
     43 H11          4.6350     6.8790    -6.4010 ha         1 V1F       0.139000
     44 H12          0.8000     0.7880    -2.6800 hn         1 V1F       0.454800
     45 H13          0.2350    -1.7280    -1.9820 h1         1 V1F       0.045700
     46 H14          1.7470    -2.0180    -2.8530 h1         1 V1F       0.045700
     47 H15          1.8970    -1.6670    -5.2510 ha         1 V1F       0.140000
     48 H16          0.6760    -1.6010    -7.3930 ha         1 V1F       0.140000
     49 H17         -1.7600    -1.2160    -7.4120 ha         1 V1F       0.140000
     50 H18         -2.9750    -0.9050    -5.2890 ha         1 V1F       0.140000
     51 H19         -1.7550    -0.9740    -3.1480 ha         1 V1F       0.140000
     52 H103         1.7760    -2.0870     3.0570 hn         1 V1F       0.496467
@<TRIPOS>BOND
     1    31    30 ar
     2    31    32 ar
     3    30    29 ar
     4    32    27 ar
     5    23    22 ar
     6    23    24 ar
     7    22    19 ar
     8    29    28 ar
     9    24    21 ar
    10    19    18 1
    11    19    20 ar
    12    18    17 1
    13    27    28 ar
    14    27    26 1
    15    21    20 ar
    16    26    25 1
    17    17    14 1
    18    16    14 2
    19    25    12 1
    20    14    13 1
    21    14    15 2
    22    12    13 ar
    23    12     2 ar
    24    13    10 ar
    25     1     2 1
    26     2     3 ar
    27    10    11 1
    28    10     8 ar
    29     3     8 ar
    30     3     4 1
    31     8     9 1
    32     6     4 1
    33     5     4 2
    34     4     7 2
    35     6    33 1
    36     6    34 1
    37    17    35 1
    38    17    36 1
    39    18    37 1
    40    18    38 1
    41    20    39 1
    42    21    40 1
    43    22    41 1
    44    23    42 1
    45    24    43 1
    46    25    44 1
    47    26    45 1
    48    26    46 1
    49    28    47 1
    50    29    48 1
    51    30    49 1
    52    31    50 1
    53    32    51 1
    54    52     6 1
@<TRIPOS>SUBSTRUCTURE
     1 V1F         1 TEMP              0 ****  ****    0 ROOT
