@<TRIPOS>MOLECULE
V1L
   16    16     1     0     0
SMALL
bcc


@<TRIPOS>ATOM
      1 O05          0.0000     0.0000     0.0000 o          1 V1L      -0.699500
      2 C04          1.2130     0.0000     0.0000 c          1 V1L       0.612500
      3 C06          1.9240     0.0000     1.3230 c3         1 V1L      -0.086400
      4 C07          3.3800    -0.4350     1.1310 c3         1 V1L      -0.030400
      5 C08          3.9790     0.3760    -0.0250 c3         1 V1L      -0.038400
      6 C02          3.2930    -0.0450    -1.3250 c3         1 V1L       0.047000
      7 N03          1.8440    -0.0040    -1.1760 ns         1 V1L      -0.182900
      8 H1           1.9010     0.9980     1.7420 hc         1 V1L       0.041200
      9 H2           1.4300    -0.6900     1.9950 hc         1 V1L       0.041200
     10 H3           3.4150    -1.4910     0.8910 hc         1 V1L       0.020700
     11 H4           3.9390    -0.2420     2.0380 hc         1 V1L       0.020700
     12 H5           3.8120     1.4320     0.1470 hc         1 V1L       0.024200
     13 H6           5.0410     0.1760    -0.0950 hc         1 V1L       0.024200
     14 H7           3.5970    -1.0540    -1.5770 h1         1 V1L       0.012200
     15 H8           3.5880     0.6310    -2.1180 h1         1 V1L       0.012200
     16 H9           1.2870     0.0220    -2.0070 hn         1 V1L       0.181500
@<TRIPOS>BOND
     1     1     2 2   
     2     2     3 1   
     3     2     7 1   
     4     3     4 1   
     5     3     8 1   
     6     3     9 1   
     7     4     5 1   
     8     4    10 1   
     9     4    11 1   
    10     5     6 1   
    11     5    12 1   
    12     5    13 1   
    13     6     7 1   
    14     6    14 1   
    15     6    15 1   
    16     7    16 1   
@<TRIPOS>SUBSTRUCTURE
     1 V1L         1 TEMP              0 ****  ****    0 ROOT
