@<TRIPOS>MOLECULE
molecule
   53    57     1     0     0
SMALL
bcc


@<TRIPOS>ATOM
      1 C27          0.0000     0.0000     0.0000 ca         1 V1N      -0.168000
      2 C28          1.3890     0.0000     0.0000 ca         1 V1N      -0.114000
      3 C26         -0.6940    -0.0000     1.1770 ca         1 V1N      -0.062000
      4 C29          2.0910     0.0000     1.1850 ca         1 V1N      -0.155000
      5 C22          0.7100     0.0000     4.5320 cc         1 V1N      -0.112100
      6 C4         -11.6750    -7.6830     6.8570 ca         1 V1N       0.680900
      7 C9          -7.5700    -6.2860     5.9480 cc         1 V1N       0.473700
      8 C25         -0.0020     0.0000     2.3900 ca         1 V1N      -0.095800
      9 C21         -0.4120    -0.0000     3.7960 cd         1 V1N      -0.129400
     10 C7          -9.0210    -7.8100     6.4680 ca         1 V1N      -0.142200
     11 C24          1.4050    -0.0000     2.3950 ca         1 V1N      -0.041200
     12 C6          -9.7170    -6.5960     6.3430 ca         1 V1N       0.429800
     13 C2          -9.7530    -8.9620     6.8040 ca         1 V1N       0.759200
     14 C32         -9.1400    -3.4750     7.1210 c3         1 V1N       0.079100
     15 C30         -7.7160    -2.9300     7.3760 c3         1 V1N       0.088100
     16 C11         -9.0200    -4.2280     5.7790 c3         1 V1N       0.250800
     17 C13         -6.9040    -3.4210     6.1560 c3         1 V1N       0.405900
     18 C20         -1.8260    -0.0020     4.3170 c3         1 V1N      -0.019200
     19 C19         -2.3470    -1.4390     4.3750 c3         1 V1N       0.232400
     20 N5         -11.0290    -6.5790     6.5440 nb         1 V1N      -0.757000
     21 N3         -11.0660    -8.8470     6.9860 nb         1 V1N      -0.785000
     22 N8          -7.7170    -7.5520     6.2150 nd         1 V1N      -0.592100
     23 N23          1.8050     0.0000     3.7120 na         1 V1N      -0.190400
     24 N10         -8.7740    -5.6530     6.0140 na         1 V1N      -0.274000
     25 O16         -3.8030    -3.7330     5.9220 o          1 V1N      -0.812000
     26 O12         -7.8870    -3.6270     5.1170 os         1 V1N      -0.376600
     27 O31         -7.1810    -3.4740     8.5840 oh         1 V1N      -0.592800
     28 O14         -5.9580    -2.4280     5.7570 os         1 V1N      -0.567200
     29 O18         -3.6880    -1.4410     4.8700 os         1 V1N      -0.609200
     30 O17         -4.8170    -3.4640     3.6260 o          1 V1N      -0.812000
     31 P15         -4.5500    -2.7860     5.0620 p5         1 V1N       1.350800
     32 H27         -0.5370     0.0000    -0.9410 ha         1 V1N       0.124000
     33 H28          1.9250     0.0000    -0.9410 ha         1 V1N       0.118000
     34 H26         -1.7770    -0.0000     1.1690 ha         1 V1N       0.143000
     35 H29          3.1740    -0.0000     1.1750 ha         1 V1N       0.114000
     36 H22          0.7430     0.0010     5.6150 h4         1 V1N       0.166000
     37 H23          2.7560     0.0010     4.0240 hn         1 V1N       0.285700
     38 H4         -12.7460    -7.6350     7.0140 h5         1 V1N       0.050100
     39 H9          -6.6290    -5.8070     5.7060 h5         1 V1N       0.125800
     40 H201        -2.4550     0.5840     3.6570 hc         1 V1N       0.048700
     41 H202        -1.8450     0.4300     5.3110 hc         1 V1N       0.048700
     42 H11N        -8.7780   -10.4740     7.8360 hn         1 V1N       0.438300
     43 H12N        -9.0410   -10.7970     6.1530 hn         1 V1N       0.438300
     44 H32         -9.4300    -4.1560     7.9120 h1         1 V1N       0.066700
     45 H30         -7.7260    -1.8480     7.4110 h1         1 V1N       0.082700
     46 H11         -9.9180    -4.0870     5.1890 h2         1 V1N       0.117700
     47 H13         -6.4050    -4.3540     6.3890 h2         1 V1N       0.075700
     48 H31         -7.0660    -2.7840     9.2150 ho         1 V1N       0.404000
     49 H191        -2.3280    -1.8700     3.3820 h1         1 V1N       0.035200
     50 H192        -1.7180    -2.0250     5.0350 h1         1 V1N       0.035200
     51 N1          -9.1240   -10.1860     6.9410 nv         1 V1N      -1.071500
     52 O33        -10.0740    -2.3980     7.0090 oh         1 V1N      -0.588800
     53 H33        -10.6890    -2.4410     7.7220 ho         1 V1N       0.401000
@<TRIPOS>BOND
     1     1     2 ar
     2     1     3 ar
     3     2     4 ar
     4     3     8 ar
     5     4    11 ar
     6     5     9 2
     7     5    23 1
     8     6    20 ar
     9     6    21 ar
    10     7    22 2
    11     7    24 1
    12     8     9 1
    13     8    11 ar
    14     9    18 1
    15    10    12 ar
    16    10    13 ar
    17    10    22 1
    18    11    23 1
    19    12    20 ar
    20    12    24 1
    21    13    21 ar
    22    13    51 1
    23    14    15 1
    24    14    16 1
    25    14    52 1
    26    15    17 1
    27    15    27 1
    28    16    24 1
    29    16    26 1
    30    17    26 1
    31    17    28 1
    32    18    19 1
    33    19    29 1
    34    25    31 1
    35    30    31 1
    36    28    31 1
    37    29    31 1
    38     1    32 1
    39     2    33 1
    40     3    34 1
    41     4    35 1
    42     5    36 1
    43    23    37 1
    44     6    38 1
    45     7    39 1
    46    18    40 1
    47    18    41 1
    48    51    42 1
    49    51    43 1
    50    14    44 1
    51    15    45 1
    52    16    46 1
    53    52    53 1
    54    17    47 1
    55    27    48 1
    56    19    49 1
    57    19    50 1
@<TRIPOS>SUBSTRUCTURE
     1 V1N         1 TEMP              0 ****  ****    0 ROOT
