@<TRIPOS>MOLECULE
molecule
   27    28     1     0     0
SMALL
bcc


@<TRIPOS>ATOM
      1 C01          0.0000     0.0000     0.0000 c3         1 V1T       0.104300
      2 N05          1.4660     0.0000     0.0000 n          1 V1T      -0.339000
      3 C06          2.2760     0.0000     1.1270 ca         1 V1T       0.068600
      4 C07          2.0080     0.0000     2.4900 ca         1 V1T      -0.119000
      5 C09          3.0450    -0.0000     3.3970 ca         1 V1T      -0.115000
      6 C11          4.3700    -0.0020     2.9480 ca         1 V1T      -0.223600
      7 C12          4.6430    -0.0020     1.5790 ca         1 V1T      -0.024000
      8 C14          3.6000    -0.0020     0.6720 ca         1 V1T      -0.004400
      9 N15          3.5460    -0.0020    -0.7200 n          1 V1T      -0.350000
     10 C16          4.6990    -0.0040    -1.6240 c3         1 V1T       0.109300
     11 C20          2.2520    -0.0070    -1.0920 c          1 V1T       0.799500
     12 O21          1.8530    -0.0130    -2.2420 o          1 V1T      -0.602500
     13 C22          5.4790    -0.0010     3.9230 c          1 V1T       0.510700
     14 N23          5.2150    -0.0000     5.2450 nz         1 V1T      -0.676400
     15 O26          6.6310    -0.0020     3.5330 o          1 V1T      -0.430100
     16 H011        -0.3610     0.0310    -1.0210 h1         1 V1T       0.068700
     17 H012        -0.3610     0.8690     0.5370 h1         1 V1T       0.068700
     18 H013        -0.3610    -0.9000     0.4840 h1         1 V1T       0.068700
     19 H07          0.9740     0.0000     2.8110 ha         1 V1T       0.163000
     20 H09          2.7710     0.0010     4.4450 ha         1 V1T       0.119000
     21 H12          5.6720    -0.0020     1.2430 ha         1 V1T       0.172000
     22 H161         5.3020     0.8760    -1.4410 h1         1 V1T       0.066700
     23 H162         5.2940    -0.8930    -1.4490 h1         1 V1T       0.066700
     24 H163         4.3530     0.0020    -2.6510 h1         1 V1T       0.066700
     25 H231         6.0750     0.0000     5.7570 hn         1 V1T       0.476800
     26 H232         4.6870     0.8170     5.4790 hn         1 V1T       0.476800
     27 H233         4.6870    -0.8180     5.4800 hn         1 V1T       0.476800
@<TRIPOS>BOND
     1     1     2 1
     2     2     3 1
     3     2    11 1
     4     3     4 ar
     5     3     8 ar
     6     4     5 ar
     7     5     6 ar
     8     6     7 ar
     9     6    13 1
    10     7     8 ar
    11     8     9 1
    12     9    10 1
    13     9    11 1
    14    11    12 2
    15    13    14 1
    16    13    15 2
    17     1    16 1
    18     1    17 1
    19     1    18 1
    20     4    19 1
    21     5    20 1
    22     7    21 1
    23    10    22 1
    24    10    23 1
    25    10    24 1
    26    14    25 1
    27    14    26 1
    28    27    14 1
@<TRIPOS>SUBSTRUCTURE
     1 V1T         1 TEMP              0 ****  ****    0 ROOT
