@<TRIPOS>MOLECULE
molecule
   45    44     1     0     0
SMALL
bcc


@<TRIPOS>ATOM
      1 OXT          0.0000     0.0000     0.0000 o          1 V20      -0.783800
      2 C            1.2090     0.0000     0.0000 c          1 V20       0.870600
      3 O            1.8800    -0.0010    -1.1620 o          1 V20      -0.783800
      4 CA           1.9620     0.0000     1.3060 c3         1 V20      -0.015500
      5 N            1.0790     0.4740     2.3800 nz         1 V20      -0.791600
      6 CB           2.4340    -1.4210     1.6220 c3         1 V20      -0.094400
      7 CAJ          3.3030    -1.4010     2.8810 c3         1 V20      -0.085400
      8 CAL          3.7750    -2.8210     3.1980 c3         1 V20      -0.151400
      9 CAT          4.6320    -2.8010     4.4380 c          1 V20       0.661100
     10 OAE          4.8440    -1.7540     5.0110 o          1 V20      -0.601100
     11 NAO          5.1620    -3.9460     4.9080 ns         1 V20      -0.563900
     12 CAW          5.9950    -3.9270     6.1140 c3         1 V20       0.086700
     13 CAK          5.1010    -4.0030     7.3530 c3         1 V20       0.027700
     14 SAI          3.9740    -2.5820     7.3730 sh         1 V20      -0.396900
     15 CAU          6.9310    -5.1080     6.0960 c          1 V20       0.641100
     16 OAF          6.9060    -5.8860     5.1720 o          1 V20      -0.553000
     17 OAP          7.7940    -5.2950     7.1080 os         1 V20      -0.397900
     18 CAX          8.6650    -6.4540     7.0240 c3         1 V20       0.053100
     19 CAS          9.9380    -6.0740     6.3120 c          1 V20       0.884600
     20 OAD         10.8550    -7.0130     6.0290 o          1 V20      -0.818800
     21 OAH         10.1340    -4.9250     5.9960 o          1 V20      -0.818800
     22 CAN          8.9980    -6.9450     8.4350 c3         1 V20       0.057700
     23 SAQ          7.4850    -7.5400     9.2390 ss         1 V20      -0.417200
     24 CAA          8.0720    -8.0700    10.8710 c3         1 V20       0.006000
     25 HA           2.8200     0.6570     1.2280 hx         1 V20       0.106700
     26 HN1          1.6320     0.8290     3.1340 hn         1 V20       0.439133
     27 HN2          0.4880     1.2020     2.0290 hn         1 V20       0.439133
     28 HBC1         3.0120    -1.8030     0.7900 hc         1 V20       0.082200
     29 HBC2         1.5740    -2.0580     1.7870 hc         1 V20       0.082200
     30 HAJ1         2.7250    -1.0180     3.7140 hc         1 V20       0.047200
     31 HAJ2         4.1630    -0.7630     2.7160 hc         1 V20       0.047200
     32 HAL1         4.3540    -3.2030     2.3650 hc         1 V20       0.067700
     33 HAL2         2.9150    -3.4590     3.3630 hc         1 V20       0.067700
     34 HAO          4.9730    -4.8130     4.4440 hn         1 V20       0.335500
     35 HAW          6.5710    -3.0100     6.1400 h1         1 V20       0.122700
     36 HAK1         4.5250    -4.9210     7.3270 h1         1 V20       0.074200
     37 HAK2         5.7160    -3.9890     8.2440 h1         1 V20       0.074200
     38 HAI          3.3690    -2.5140     8.5530 hs         1 V20       0.173800
     39 HAX          8.1660    -7.2430     6.4750 h1         1 V20       0.078700
     40 HAN1         9.4170    -6.1290     9.0120 h1         1 V20       0.079200
     41 HAN2         9.7170    -7.7530     8.3760 h1         1 V20       0.079200
     42 HAA1         7.2560    -8.5270    11.4180 h1         1 V20       0.049367
     43 HAA2         8.4380    -7.2110    11.4200 h1         1 V20       0.049367
     44 HAA3         8.8740    -8.7890    10.7510 h1         1 V20       0.049367
     45 HN3          0.5150    -0.2850     2.7070 hn         1 V20       0.439133
@<TRIPOS>BOND
     1     1     2 1
     2     2     3 1
     3     2     4 1
     4     4     5 1
     5     4     6 1
     6     6     7 1
     7     7     8 1
     8     8     9 1
     9     9    10 2
    10     9    11 1
    11    11    12 1
    12    12    13 1
    13    12    15 1
    14    13    14 1
    15    15    16 2
    16    15    17 1
    17    17    18 1
    18    18    19 1
    19    18    22 1
    20    19    20 1
    21    19    21 1
    22    22    23 1
    23    23    24 1
    24     4    25 1
    25     5    26 1
    26     5    27 1
    27     6    28 1
    28     6    29 1
    29     7    30 1
    30     7    31 1
    31     8    32 1
    32     8    33 1
    33    11    34 1
    34    12    35 1
    35    13    36 1
    36    13    37 1
    37    14    38 1
    38    18    39 1
    39    22    40 1
    40    22    41 1
    41    24    42 1
    42    24    43 1
    43    24    44 1
    44    45     5 1
@<TRIPOS>SUBSTRUCTURE
     1 V20         1 TEMP              0 ****  ****    0 ROOT
