@<TRIPOS>MOLECULE
V21
   27    29     1     0     0
SMALL
bcc


@<TRIPOS>ATOM
      1 O12          0.0000     0.0000     0.0000 o          1 V21      -0.458700
      2 S9           1.4210     0.0000     0.0000 s6         1 V21       1.332100
      3 O11          2.1990     0.0000     1.1900 o          1 V21      -0.502300
      4 N10          1.8870    -1.3340    -0.8640 nz         1 V21      -0.134500
      5 C8           1.9180     1.4180    -0.9200 cc         1 V21      -0.718000
      6 C13          1.0520     1.9730    -1.8540 cc         1 V21      -0.028000
      7 C1           1.4150     3.0710    -2.5780 cd         1 V21      -0.168800
      8 C7           3.1640     1.9720    -0.7030 cc         1 V21       0.137000
      9 C6           3.5510     3.0880    -1.4280 cd         1 V21      -0.444600
     10 C2           2.6790     3.6500    -2.3790 cd         1 V21       0.490100
     11 N5           4.7160     3.8600    -1.4390 na         1 V21       0.683600
     12 S15          6.7480     5.0360    -1.3120 ss         1 V21       0.294200
     13 N14          5.8460     3.8640    -0.8210 n2         1 V21      -0.565900
     14 C16          5.6380     5.6750    -2.4570 cd         1 V21       0.026500
     15 C4           4.5250     4.8380    -2.3640 cc         1 V21       0.220800
     16 N3           3.3020     4.7030    -2.9240 nc         1 V21      -0.608000
     17 S17          5.8570     7.0700    -3.5100 ss         1 V21      -0.129000
     18 C18          7.5220     7.6480    -3.0820 c3         1 V21       0.100000
     19 HN10         1.4370    -1.3270    -1.7580 hn         1 V21       0.311467
     20 HN1A         1.6270    -2.1620    -0.3660 hn         1 V21       0.311467
     21 H13          0.0760     1.5280    -2.0090 ha         1 V21       0.125000
     22 H1           0.7310     3.4950    -3.3030 ha         1 V21       0.137000
     23 H7           3.7820     1.6140     0.1110 ha         1 V21       0.128000
     24 H18          8.2390     6.8600    -3.2790 h1         1 V21       0.050033
     25 H18A         7.7670     8.5180    -3.6790 h1         1 V21       0.050033
     26 H18B         7.5540     7.9100    -2.0310 h1         1 V21       0.050033
     27 H103         2.8810    -1.3220    -0.9840 hn         1 V21       0.311467
@<TRIPOS>BOND
     1     1     2 1   
     2     2     3 2   
     3     2     4 1   
     4     2     5 2   
     5     4    19 1   
     6     4    20 1   
     7     4    27 1   
     8     5     6 1   
     9     5     8 1   
    10     6     7 2   
    11     6    21 1   
    12     7    10 1   
    13     7    22 1   
    14     8     9 2   
    15     8    23 1   
    16     9    10 1   
    17     9    11 1   
    18    10    16 2   
    19    11    13 2   
    20    11    15 1   
    21    12    13 1   
    22    12    14 1   
    23    14    15 2   
    24    14    17 1   
    25    15    16 1   
    26    17    18 1   
    27    18    24 1   
    28    18    25 1   
    29    18    26 1   
@<TRIPOS>SUBSTRUCTURE
     1 V21         1 TEMP              0 ****  ****    0 ROOT
