@<TRIPOS>MOLECULE
V25
   36    37     1     0     0
SMALL
bcc


@<TRIPOS>ATOM
      1 CAA          0.0000     0.0000     0.0000 c3         1 V25      -0.010100
      2 CAL          1.5440     0.0000     0.0000 c3         1 V25       0.229400
      3 OAM          1.8740     0.0000     1.3980 os         1 V25      -0.469900
      4 CAN          3.1230    -0.4470     1.6450 c          1 V25       0.702300
      5 OAE          3.9240    -0.3570     0.7170 o          1 V25      -0.542000
      6 CAS          3.5540    -0.7900     3.0600 cc         1 V25      -0.324300
      7 NAV          4.8450    -1.0550     3.4600 na         1 V25       0.641600
      8 CAB          5.9890    -1.1800     2.5550 c3         1 V25      -0.114400
      9 CAU          4.9230    -1.1900     4.7610 ca         1 V25      -0.244200
     10 CAQ          5.9680    -1.5000     5.6350 ca         1 V25      -0.043600
     11 Cl1          7.5900    -1.7640     5.0880 cl         1 V25       0.047600
     12 CAP          5.7550    -1.5790     6.9840 ca         1 V25      -0.014600
     13 Cl2          7.0450    -1.9580     8.0850 cl         1 V25       0.064600
     14 CAJ          4.4860    -1.3560     7.4870 ca         1 V25      -0.082000
     15 CAK          3.4280    -1.0810     6.6400 ca         1 V25      -0.103000
     16 CAT          3.6180    -0.9980     5.2710 ca         1 V25      -0.044800
     17 CAR          2.7660    -0.7000     4.2100 cd         1 V25      -0.196200
     18 CAO          1.3660    -0.5350     4.3810 cf         1 V25       0.466300
     19 CAH          0.7740     0.3350     5.3370 ch         1 V25       0.100500
     20 NAC          0.3080     1.0460     6.0920 n1         1 V25      -0.222800
     21 CAI          0.4410    -1.3900     3.7390 c2         1 V25      -0.528000
     22 NAD          0.7290    -2.2950     2.8150 nz         1 V25       0.349600
     23 HAA1        -0.4460    -0.9180     0.3640 hc         1 V25       0.025700
     24 HAA2        -0.1120    -0.2990    -1.0350 hc         1 V25       0.025700
     25 HAA3        -0.4520     0.9820    -0.0770 hc         1 V25       0.025700
     26 HAL1         2.1030    -0.9150    -0.1570 h1         1 V25       0.034700
     27 HAL2         2.1550     0.8630    -0.2370 h1         1 V25       0.034700
     28 HAB1         5.7120    -0.2390     2.0940 h1         1 V25       0.065700
     29 HAB2         6.9980    -1.1970     2.9480 h1         1 V25       0.065700
     30 HAB3         5.8190    -1.8420     1.7140 h1         1 V25       0.065700
     31 HAJ          4.2050    -1.1300     8.5090 ha         1 V25       0.135000
     32 HAK          2.6180    -0.9010     7.3370 ha         1 V25       0.133000
     33 HAI         -0.5610    -1.5190     4.1300 hx         1 V25       0.187000
     34 HAD1         1.6700    -2.5160     2.5540 hn         1 V25       0.179800
     35 HAD2         0.6870    -3.2240     3.1850 hn         1 V25       0.179800
     36 HAD3         0.3320    -2.2050     1.9010 hn         1 V25       0.179800
@<TRIPOS>BOND
     1     1     2 1   
     2     1    23 1   
     3     1    24 1   
     4     1    25 1   
     5     2     3 1   
     6     2    26 1   
     7     2    27 1   
     8     3     4 1   
     9     4     5 2   
    10     4     6 1   
    11     6     7 1   
    12     6    17 2   
    13     7     8 1   
    14     7     9 1   
    15     8    28 1   
    16     8    29 1   
    17     8    30 1   
    18     9    10 ar  
    19     9    16 ar  
    20    10    11 1   
    21    10    12 ar  
    22    12    13 1   
    23    12    14 ar  
    24    14    15 ar  
    25    14    31 1   
    26    15    16 ar  
    27    15    32 1   
    28    16    17 1   
    29    17    18 1   
    30    18    19 1   
    31    18    21 2   
    32    19    20 3   
    33    21    22 1   
    34    21    33 1   
    35    22    34 1   
    36    22    35 1   
    37    22    36 1   
@<TRIPOS>SUBSTRUCTURE
     1 V25         1 TEMP              0 ****  ****    0 ROOT
