@<TRIPOS>MOLECULE
molecule
   36    37     1     0     0
SMALL
bcc


@<TRIPOS>ATOM
      1 CAA          0.0000     0.0000     0.0000 c3         1 V25      -0.103100
      2 CAL          1.5440     0.0000     0.0000 c3         1 V25       0.125400
      3 OAM          1.8740     0.0000     1.3980 os         1 V25      -0.433900
      4 CAN          3.1230    -0.4470     1.6450 c          1 V25       0.613300
      5 OAE          3.9240    -0.3570     0.7170 o          1 V25      -0.484000
      6 CAS          3.5540    -0.7900     3.0600 cc         1 V25      -0.103300
      7 NAV          4.8450    -1.0550     3.4600 na         1 V25       0.071600
      8 CAB          5.9890    -1.1800     2.5550 c3         1 V25      -0.013400
      9 CAU          4.9230    -1.1900     4.7610 ca         1 V25      -0.021200
     10 CAQ          5.9680    -1.5000     5.6350 ca         1 V25       0.011400
     11 Cl1          7.5900    -1.7640     5.0880 cl         1 V25      -0.050400
     12 CAP          5.7550    -1.5790     6.9840 ca         1 V25       0.067400
     13 Cl2          7.0450    -1.9580     8.0850 cl         1 V25      -0.027400
     14 CAJ          4.4860    -1.3560     7.4870 ca         1 V25      -0.116000
     15 CAK          3.4280    -1.0810     6.6400 ca         1 V25      -0.103000
     16 CAT          3.6180    -0.9980     5.2710 ca         1 V25      -0.067800
     17 CAR          2.7660    -0.7000     4.2100 cd         1 V25      -0.143200
     18 CAO          1.3660    -0.5350     4.3810 cf         1 V25       0.159300
     19 CAH          0.7740     0.3350     5.3370 ch         1 V25       0.158500
     20 NAC          0.3190     1.0360     6.1080 n1         1 V25      -0.222800
     21 CAI          0.4410    -1.3900     3.7390 c2         1 V25      -0.103000
     22 NAD          0.7290    -2.2950     2.8150 nz         1 V25      -0.358400
     23 HAA1        -0.3610     0.0220    -1.0210 hc         1 V25       0.053033
     24 HAA2        -0.3610     0.8740     0.5290 hc         1 V25       0.053033
     25 HAA3        -0.3610    -0.8950     0.4920 hc         1 V25       0.053033
     26 HAL1         1.9050    -0.8850    -0.5110 h1         1 V25       0.079200
     27 HAL2         1.9050     0.8840    -0.5110 h1         1 V25       0.079200
     28 HAB1         6.4230    -2.1670     2.6550 h1         1 V25       0.092367
     29 HAB2         5.6590    -1.0320     1.5330 h1         1 V25       0.092367
     30 HAB3         6.7320    -0.4320     2.8050 h1         1 V25       0.092367
     31 HAJ          4.3500    -1.3740     8.5620 ha         1 V25       0.172000
     32 HAK          2.5950    -0.9130     7.3130 ha         1 V25       0.165000
     33 HAI          0.7950    -2.1900     3.1010 hx         1 V25       0.049000
     34 HAD1         1.4000    -2.9420     3.1800 hn         1 V25       0.387467
     35 HAD2        -0.1040    -2.7870     2.5590 hn         1 V25       0.387467
     36 HAD3         1.1090    -1.8400     2.0080 hn         1 V25       0.387467
@<TRIPOS>BOND
     1     1     2 1
     2     2     3 1
     3     3     4 1
     4     4     5 2
     5     4     6 1
     6     6     7 1
     7     6    17 2
     8     7     8 1
     9     7     9 1
    10     9    10 ar
    11     9    16 ar
    12    10    11 1
    13    10    12 ar
    14    12    13 1
    15    12    14 ar
    16    14    15 ar
    17    15    16 ar
    18    16    17 1
    19    17    18 1
    20    18    19 1
    21    18    21 2
    22    19    20 3
    23    21    22 1
    24     1    23 1
    25     1    24 1
    26     1    25 1
    27     2    26 1
    28     2    27 1
    29     8    28 1
    30     8    29 1
    31     8    30 1
    32    14    31 1
    33    15    32 1
    34    21    33 1
    35    22    34 1
    36    22    35 1
    37    36    22 1
@<TRIPOS>SUBSTRUCTURE
     1 V25         1 TEMP              0 ****  ****    0 ROOT
