@<TRIPOS>MOLECULE
V26
   42    43     1     0     0
SMALL
bcc


@<TRIPOS>ATOM
      1 O16          0.0000     0.0000     0.0000 o          1 V26      -0.546800
      2 S14          1.4210     0.0000     0.0000 sy         1 V26       0.871300
      3 O15          2.1540     0.0000     1.2170 o          1 V26      -0.546800
      4 C8           1.8550    -1.5240    -0.7700 ca         1 V26      -0.075500
      5 C7           2.8770    -2.2970    -0.2460 ca         1 V26       0.196900
      6 F12          3.5410    -1.8830     0.8540 f          1 V26      -0.062900
      7 C6           3.2190    -3.4970    -0.8510 ca         1 V26       0.165900
      8 F11          4.2160    -4.2510    -0.3390 f          1 V26      -0.083900
      9 C9           1.1700    -1.9530    -1.8980 ca         1 V26       0.111600
     10 N25          0.1340    -1.1750    -2.4260 nu         1 V26      -0.480600
     11 C26          0.4840    -0.6640    -3.7580 c3         1 V26       0.185100
     12 C10          1.5150    -3.1560    -2.5030 ca         1 V26       0.154900
     13 F13          0.8490    -3.5760    -3.6020 f          1 V26      -0.094900
     14 C5           2.5390    -3.9240    -1.9800 ca         1 V26      -0.239500
     15 S1           2.9760    -5.4490    -2.7460 sy         1 V26       0.950200
     16 O3           1.8290    -5.8820    -3.4640 o          1 V26      -0.470300
     17 N4           4.1370    -5.1140    -3.8790 nz         1 V26      -0.134500
     18 O2           3.6090    -6.2350    -1.7450 o          1 V26      -0.470300
     19 C17          2.0570     1.2730    -1.1260 c3         1 V26       0.013400
     20 C18          1.7530     2.6590    -0.5520 c3         1 V26       0.067900
     21 C19          2.2820     3.7160    -1.4870 ca         1 V26      -0.090300
     22 C24          1.4770     4.2110    -2.4960 ca         1 V26      -0.104500
     23 C23          1.9610     5.1810    -3.3530 ca         1 V26      -0.103500
     24 C22          3.2510     5.6560    -3.2030 ca         1 V26      -0.091000
     25 C21          4.0560     5.1610    -2.1940 ca         1 V26      -0.103500
     26 C20          3.5690     4.1950    -1.3320 ca         1 V26      -0.104500
     27 H1          -0.8180    -1.3940    -2.2090 hn         1 V26       0.343800
     28 H2           0.1070    -1.3410    -4.5150 h1         1 V26       0.010033
     29 H3           0.0430     0.3150    -3.8970 h1         1 V26       0.010033
     30 H4           1.5620    -0.5900    -3.8440 h1         1 V26       0.010033
     31 H5           4.5850    -5.9640    -4.1590 hn         1 V26       0.316800
     32 H6           4.8170    -4.4930    -3.4860 hn         1 V26       0.316800
     33 H7           3.1280     1.1550    -1.2360 h1         1 V26       0.066700
     34 H8           1.5810     1.1700    -2.0940 h1         1 V26       0.066700
     35 H9           0.6820     2.7770    -0.4410 hc         1 V26       0.037700
     36 H10          2.2300     2.7610     0.4150 hc         1 V26       0.037700
     37 H11          0.4510     3.8730    -2.5850 ha         1 V26       0.113500
     38 H12          1.3300     5.5700    -4.1430 ha         1 V26       0.108500
     39 H13          3.6210     6.4350    -3.8580 ha         1 V26       0.109000
     40 H14          5.0740     5.5160    -2.0900 ha         1 V26       0.108500
     41 H15          4.3430     4.1200    -0.5780 ha         1 V26       0.113500
     42 H43          3.7130    -4.6700    -4.6690 hn         1 V26       0.316800
@<TRIPOS>BOND
     1     1     2 2   
     2     2     3 2   
     3     2     4 1   
     4     2    19 1   
     5     4     5 ar  
     6     4     9 ar  
     7     5     6 1   
     8     5     7 ar  
     9     7     8 1   
    10     7    14 ar  
    11     9    10 1   
    12     9    12 ar  
    13    10    11 1   
    14    10    27 1   
    15    11    28 1   
    16    11    29 1   
    17    11    30 1   
    18    12    13 1   
    19    12    14 ar  
    20    14    15 1   
    21    15    16 2   
    22    15    17 1   
    23    15    18 2   
    24    17    31 1   
    25    17    32 1   
    26    17    42 1   
    27    19    20 1   
    28    19    33 1   
    29    19    34 1   
    30    20    21 1   
    31    20    35 1   
    32    20    36 1   
    33    21    22 ar  
    34    21    26 ar  
    35    22    23 ar  
    36    22    37 1   
    37    23    24 ar  
    38    23    38 1   
    39    24    25 ar  
    40    24    39 1   
    41    25    26 ar  
    42    25    40 1   
    43    26    41 1   
@<TRIPOS>SUBSTRUCTURE
     1 V26         1 TEMP              0 ****  ****    0 ROOT
