@<TRIPOS>MOLECULE
molecule
   42    43     1     0     0
SMALL
bcc


@<TRIPOS>ATOM
      1 O16          0.0000     0.0000     0.0000 o          1 V26      -0.574300
      2 S14          1.4210     0.0000     0.0000 sy         1 V26       1.176300
      3 O15          2.1540     0.0000     1.2170 o          1 V26      -0.574300
      4 C8           1.8550    -1.5240    -0.7700 ca         1 V26      -0.214500
      5 C7           2.8770    -2.2970    -0.2460 ca         1 V26       0.194900
      6 F12          3.5410    -1.8830     0.8540 f          1 V26      -0.053900
      7 C6           3.2190    -3.4970    -0.8510 ca         1 V26       0.172900
      8 F11          4.2160    -4.2510    -0.3390 f          1 V26      -0.086900
      9 C9           1.1700    -1.9530    -1.8980 ca         1 V26       0.211600
     10 N25          0.1340    -1.1750    -2.4260 nu         1 V26      -0.821600
     11 C26          0.4840    -0.6640    -3.7580 c3         1 V26       0.188100
     12 C10          1.5150    -3.1560    -2.5030 ca         1 V26       0.170900
     13 F13          0.8490    -3.5760    -3.6020 f          1 V26      -0.098900
     14 C5           2.5390    -3.9240    -1.9800 ca         1 V26      -0.370500
     15 S1           2.9760    -5.4490    -2.7460 sy         1 V26       1.242200
     16 O3           1.8290    -5.8820    -3.4640 o          1 V26      -0.489800
     17 N4           4.1370    -5.1140    -3.8790 nz         1 V26      -0.809500
     18 O2           3.6090    -6.2350    -1.7450 o          1 V26      -0.489800
     19 C17          2.0570     1.2730    -1.1260 c3         1 V26      -0.184600
     20 C18          1.7530     2.6590    -0.5520 c3         1 V26      -0.010100
     21 C19          2.2820     3.7160    -1.4870 ca         1 V26      -0.073300
     22 C24          1.4770     4.2110    -2.4960 ca         1 V26      -0.129500
     23 C23          1.9610     5.1810    -3.3530 ca         1 V26      -0.130500
     24 C22          3.2510     5.6560    -3.2030 ca         1 V26      -0.120000
     25 C21          4.0560     5.1610    -2.1940 ca         1 V26      -0.130500
     26 C20          3.5690     4.1950    -1.3320 ca         1 V26      -0.129500
     27 H1          -0.8180    -1.3940    -2.2090 hn         1 V26       0.479800
     28 H2           0.1070    -1.3410    -4.5150 h1         1 V26       0.046033
     29 H3           0.0430     0.3150    -3.8970 h1         1 V26       0.046033
     30 H4           1.5620    -0.5900    -3.8440 h1         1 V26       0.046033
     31 H5           4.5850    -5.9640    -4.1590 hn         1 V26       0.495133
     32 H6           4.8170    -4.4930    -3.4860 hn         1 V26       0.495133
     33 H7           3.1280     1.1550    -1.2360 h1         1 V26       0.101200
     34 H8           1.5810     1.1700    -2.0940 h1         1 V26       0.101200
     35 H9           0.6820     2.7770    -0.4410 hc         1 V26       0.069700
     36 H10          2.2300     2.7610     0.4150 hc         1 V26       0.069700
     37 H11          0.4510     3.8730    -2.5850 ha         1 V26       0.139000
     38 H12          1.3300     5.5700    -4.1430 ha         1 V26       0.137000
     39 H13          3.6210     6.4350    -3.8580 ha         1 V26       0.138000
     40 H14          5.0740     5.5160    -2.0900 ha         1 V26       0.137000
     41 H15          4.3430     4.1200    -0.5780 ha         1 V26       0.139000
     42 H43          3.7130    -4.6700    -4.6690 hn         1 V26       0.495133
@<TRIPOS>BOND
     1    26    25 ar
     2    26    21 ar
     3    25    24 ar
     4    20    21 1
     5    20    19 1
     6    21    22 ar
     7    24    23 ar
     8    22    23 ar
     9    19     2 1
    10    11    10 1
    11     1     2 2
    12    10     9 1
    13     2     4 1
    14     2     3 2
    15     9     4 ar
    16     9    12 ar
    17     4     5 ar
    18    13    12 1
    19    12    14 ar
    20     5     6 1
    21     5     7 ar
    22    14     7 ar
    23    14    15 1
    24     7     8 1
    25    17    15 1
    26    18    15 2
    27    15    16 2
    28    10    27 1
    29    11    28 1
    30    11    29 1
    31    11    30 1
    32    17    31 1
    33    17    32 1
    34    19    33 1
    35    19    34 1
    36    20    35 1
    37    20    36 1
    38    22    37 1
    39    23    38 1
    40    24    39 1
    41    25    40 1
    42    26    41 1
    43    42    17 1
@<TRIPOS>SUBSTRUCTURE
     1 V26         1 TEMP              0 ****  ****    0 ROOT
