@<TRIPOS>MOLECULE
molecule
   53    55     1     0     0
SMALL
bcc


@<TRIPOS>ATOM
      1 O01          0.0000     0.0000     0.0000 oh         1 V2C      -0.486100
      2 C02          1.3560     0.0000     0.0000 ca         1 V2C       0.193100
      3 C03          2.0520     0.0000     1.1980 ca         1 V2C      -0.265000
      4 C04          3.4380    -0.0010     1.1950 ca         1 V2C       0.175100
      5 O05          4.1150    -0.0010     2.3720 oh         1 V2C      -0.501100
      6 C06          4.1390    -0.0020    -0.0080 ca         1 V2C      -0.030600
      7 C08          3.4600    -0.0010    -1.2050 ca         1 V2C       0.008700
      8 C09          4.2230    -0.0030    -2.5050 c3         1 V2C      -0.048100
      9 C10          4.4730    -1.4460    -2.9470 c3         1 V2C      -0.090700
     10 C11          5.2370    -1.4470    -4.2470 cc         1 V2C       0.395800
     11 N12          4.7130    -1.3440    -5.4380 nd         1 V2C      -0.693000
     12 C13          5.6900    -1.3820    -6.3550 cd         1 V2C       0.300200
     13 C14          6.8640    -1.5150    -5.7100 cc         1 V2C      -0.262600
     14 N15          6.5780    -1.5510    -4.3710 na         1 V2C      -0.173900
     15 C16          7.5440    -1.6850    -3.2780 c3         1 V2C       0.100600
     16 C17          7.6660    -3.1370    -2.8920 ca         1 V2C      -0.151300
     17 C18          6.9960    -3.6150    -1.7830 ca         1 V2C      -0.076000
     18 C22          7.1060    -4.9480    -1.4280 ca         1 V2C      -0.165000
     19 C23          7.8880    -5.8030    -2.1810 ca         1 V2C      -0.078000
     20 C24          8.5620    -5.3290    -3.2920 ca         1 V2C      -0.221000
     21 C25          8.4470    -3.9950    -3.6530 ca         1 V2C       0.164100
     22 C26          2.0600    -0.0060    -1.2150 ca         1 V2C      -0.141600
     23 C27          1.3300    -0.0070    -2.4920 c          1 V2C       0.660700
     24 O28          1.0630     1.1580    -3.1160 os         1 V2C      -0.424900
     25 C29          0.2640     1.0890    -4.3260 c3         1 V2C       0.137700
     26 O30          0.9670    -1.0570    -2.9840 o          1 V2C      -0.519000
     27 Cl7          5.8750     0.0040     0.0010 cl         1 V2C      -0.089400
     28 H1          -0.3140     0.4880     0.7430 ho         1 V2C       0.430000
     29 H2           1.5120    -0.0080     2.1370 ha         1 V2C       0.151000
     30 H3           3.9070     0.7820     2.8540 ho         1 V2C       0.429000
     31 H4           5.1720     0.5020    -2.3670 hc         1 V2C       0.072700
     32 H5           3.6460     0.5130    -3.2630 hc         1 V2C       0.072700
     33 H6           3.5240    -1.9500    -3.0860 hc         1 V2C       0.072700
     34 H7           5.0490    -1.9610    -2.1890 hc         1 V2C       0.072700
     35 H8           5.5580    -1.3190    -7.4290 h4         1 V2C       0.036100
     36 H9           7.8470    -1.5760    -6.1620 h4         1 V2C       0.176000
     37 H10          7.2060    -1.1120    -2.4240 h1         1 V2C       0.070700
     38 H11          8.5100    -1.3150    -3.6020 h1         1 V2C       0.070700
     39 H12          6.3820    -2.9470    -1.1920 ha         1 V2C       0.140000
     40 H13          6.5790    -5.3210    -0.5590 ha         1 V2C       0.136000
     41 H14          7.9760    -6.8460    -1.8990 ha         1 V2C       0.133000
     42 H15          9.1730    -6.0000    -3.8830 ha         1 V2C       0.137000
     43 H17          0.1210     2.0880    -4.7220 h1         1 V2C       0.052033
     44 H18          0.7740     0.4790    -5.0620 h1         1 V2C       0.052033
     45 H19         -0.7000     0.6500    -4.0980 h1         1 V2C       0.052033
     46 O1           9.1090    -3.5260    -4.7440 os         1 V2C      -0.334900
     47 C2           9.9040    -4.4630    -5.4720 c3         1 V2C       0.135400
     48 C3          10.5660    -3.7580    -6.6570 c3         1 V2C      -0.094100
     49 H16          9.2730    -5.2660    -5.8360 h1         1 V2C       0.037200
     50 H20         10.6680    -4.8710    -4.8220 h1         1 V2C       0.037200
     51 H21         11.0020    -2.8240    -6.3240 hc         1 V2C       0.048367
     52 H22         11.3430    -4.3930    -7.0670 hc         1 V2C       0.048367
     53 H23          9.8230    -3.5590    -7.4200 hc         1 V2C       0.048367
@<TRIPOS>BOND
     1    19    18 ar
     2    19    20 ar
     3    18    17 ar
     4    20    21 ar
     5    17    16 ar
     6    21    16 ar
     7    16    15 1
     8    13    14 1
     9    13    12 2
    10    15    14 1
    11    14    10 1
    12    12    11 1
    13    10    11 2
    14    10     9 1
    15    27     6 1
    16     9     8 1
    17     8     7 1
    18     6     7 ar
    19     6     4 ar
    20     7    22 ar
    21     5     4 1
    22    25    24 1
    23     4     3 ar
    24    24    23 1
    25    22    23 1
    26    22     2 ar
    27    23    26 2
    28     3     2 ar
    29     2     1 1
    30     1    28 1
    31     3    29 1
    32     5    30 1
    33     8    31 1
    34     8    32 1
    35     9    33 1
    36     9    34 1
    37    12    35 1
    38    13    36 1
    39    15    37 1
    40    15    38 1
    41    17    39 1
    42    18    40 1
    43    19    41 1
    44    20    42 1
    45    25    43 1
    46    25    44 1
    47    25    45 1
    48    21    46 1
    49    46    47 1
    50    47    48 1
    51    47    49 1
    52    47    50 1
    53    48    51 1
    54    48    52 1
    55    48    53 1
@<TRIPOS>SUBSTRUCTURE
     1 V2C         1 TEMP              0 ****  ****    0 ROOT
