@<TRIPOS>MOLECULE
V2H
   74    76     1     0     0
SMALL
bcc


@<TRIPOS>ATOM
      1 O30         0.8170    0.5830   -0.1930 oh        1 V2H     -0.588800
      2 CAN         2.1640    0.1370   -0.0550 c3        1 V2H      0.186300
      3 CAO         2.5910    0.0910    1.4090 c3        1 V2H     -0.146400
      4 CAZ         1.8510   -1.0110    2.1580 c3        1 V2H      0.146100
      5 OAG         2.3090   -1.1070    3.5010 oh        1 V2H     -0.599800
      6 CAT         2.2540   -1.2220   -0.7040 ce        1 V2H     -0.070200
      7 CAA         2.8000   -1.3520   -1.9190 c2        1 V2H     -0.192000
      8 CAU         1.7460   -2.3550    0.0690 ce        1 V2H     -0.073200
      9 CAS         2.1130   -2.3700    1.5150 c3        1 V2H     -0.036200
     10 CAH         1.0050   -3.3550   -0.4530 cf        1 V2H     -0.109000
     11 CAI         0.5610   -3.4280   -1.8260 cf        1 V2H     -0.149000
     12 CAV         0.2160   -4.5490   -2.4800 c2        1 V2H     -0.082400
     13 CAM         0.3300   -5.9340   -1.9270 c3        1 V2H     -0.044200
     14 CAL        -0.8890   -6.8050   -2.1840 c3        1 V2H     -0.072400
     15 CAR        -1.4250   -6.7230   -3.6030 c3        1 V2H     -0.065400
     16 CBC        -1.6220   -5.2730   -4.0150 c3        1 V2H     -0.046000
     17 CBA        -0.2470   -4.5610   -3.8930 c3        1 V2H     -0.035500
     18 CAF        -2.6680   -4.6120   -3.1350 c3        1 V2H     -0.083100
     19 CBB        -1.9310   -5.0530   -5.5130 c3        1 V2H     -0.049700
     20 CAQ        -1.4190   -3.6320   -5.7970 c3        1 V2H     -0.079400
     21 CAP        -0.4340   -3.2710   -4.6800 c3        1 V2H     -0.073400
     22 CAY        -3.3710   -5.3450   -5.9360 c3        1 V2H     -0.017500
     23 CAE        -3.3870   -6.0180   -7.2960 c3        1 V2H     -0.092100
     24 CAK        -4.2930   -4.1830   -5.8180 c2        1 V2H     -0.160200
     25 CAJ        -4.7260   -3.2800   -6.7010 c2        1 V2H     -0.160200
     26 CAX        -4.3820   -3.0850   -8.1370 c3        1 V2H     -0.033500
     27 CAD        -3.6220   -1.7780   -8.2880 c3        1 V2H     -0.088100
     28 CAW        -5.6600   -3.0790   -8.9870 c3        1 V2H     -0.060700
     29 CAB        -5.3560   -2.7770  -10.4400 c3        1 V2H     -0.091100
     30 CAC        -6.3810   -4.4070   -8.8790 c3        1 V2H     -0.091100
     31 HO30        0.7560    1.4210    0.2810 ho        1 V2H      0.396000
     32 HAN         2.8340    0.8640   -0.6030 h1        1 V2H      0.034700
     33 HAO         3.6940   -0.0960    1.4660 hc        1 V2H      0.052700
     34 HAOA        2.3850    1.0800    1.8920 hc        1 V2H      0.052700
     35 HAZ         0.7460   -0.7900    2.1490 h1        1 V2H      0.048700
     36 HOAG        2.1310   -0.2560    3.9160 ho        1 V2H      0.398000
     37 HAA         3.1750   -0.4930   -2.4900 ha        1 V2H      0.120000
     38 HAAA        2.9070   -2.3290   -2.4100 ha        1 V2H      0.120000
     39 HAS         1.5340   -3.1510    2.0730 hc        1 V2H      0.062200
     40 HASA        3.2030   -2.6220    1.6220 hc        1 V2H      0.062200
     41 HAH         0.6740   -4.1730    0.2130 ha        1 V2H      0.124000
     42 HAI         0.5000   -2.4540   -2.3490 ha        1 V2H      0.137000
     43 HAM         0.5200   -5.9090   -0.8210 hc        1 V2H      0.047200
     44 HAMA        1.2290   -6.4150   -2.4030 hc        1 V2H      0.047200
     45 HAL        -1.7040   -6.5130   -1.4690 hc        1 V2H      0.040700
     46 HALA       -0.6190   -7.8700   -1.9580 hc        1 V2H      0.040700
     47 HAR        -2.3990   -7.2750   -3.6660 hc        1 V2H      0.040700
     48 HARA       -0.7090   -7.2210   -4.3070 hc        1 V2H      0.040700
     49 HBA         0.5070   -5.1850   -4.4620 hc        1 V2H      0.052700
     50 HAF        -2.9110   -3.5920   -3.5230 hc        1 V2H      0.038700
     51 HAFA       -2.2920   -4.5060   -2.0890 hc        1 V2H      0.038700
     52 HAFB       -3.6030   -5.2230   -3.1180 hc        1 V2H      0.038700
     53 HBB        -1.2730   -5.7730   -6.0820 hc        1 V2H      0.045700
     54 HAQ        -2.2640   -2.8980   -5.8130 hc        1 V2H      0.047200
     55 HAQA       -0.9210   -3.5960   -6.7970 hc        1 V2H      0.047200
     56 HAP        -0.8610   -2.4640   -4.0330 hc        1 V2H      0.045200
     57 HAPA        0.5360   -2.9030   -5.0920 hc        1 V2H      0.045200
     58 HAY        -3.7630   -6.1170   -5.2020 hc        1 V2H      0.048700
     59 HAE        -3.0860   -7.0890   -7.1920 hc        1 V2H      0.035700
     60 HAEA       -2.6680   -5.5320   -8.0000 hc        1 V2H      0.035700
     61 HAEB       -4.4110   -5.9790   -7.7400 hc        1 V2H      0.035700
     62 HAK        -4.6850   -4.0840   -4.7850 ha        1 V2H      0.113000
     63 HAJ        -5.4480   -2.5200   -6.3400 ha        1 V2H      0.112000
     64 HAX        -3.7230   -3.9170   -8.5090 hc        1 V2H      0.057700
     65 HAD        -2.7600   -1.7500   -7.5770 hc        1 V2H      0.035367
     66 HADA       -3.2230   -1.6790   -9.3260 hc        1 V2H      0.035367
     67 HADB       -4.2870   -0.9080   -8.0760 hc        1 V2H      0.035367
     68 HAW        -6.3380   -2.2710   -8.5900 hc        1 V2H      0.045700
     69 HAB        -5.0280   -1.7170  -10.5630 hc        1 V2H      0.034367
     70 HABA       -4.5470   -3.4460  -10.8210 hc        1 V2H      0.034367
     71 HABB       -6.2690   -2.9370  -11.0640 hc        1 V2H      0.034367
     72 HAC        -7.3690   -4.3530   -9.3960 hc        1 V2H      0.034367
     73 HACA       -6.5530   -4.6720   -7.8070 hc        1 V2H      0.034367
     74 HACB       -5.7800   -5.2200   -9.3530 hc        1 V2H      0.034367
@<TRIPOS>BOND
     1    1    2 1   
     2    1   31 1   
     3    2    3 1   
     4    2    6 1   
     5    2   32 1   
     6    3    4 1   
     7    3   33 1   
     8    3   34 1   
     9    4    5 1   
    10    4    9 1   
    11    4   35 1   
    12    5   36 1   
    13    6    7 2   
    14    6    8 1   
    15    7   37 1   
    16    7   38 1   
    17    8    9 1   
    18    8   10 2   
    19    9   39 1   
    20    9   40 1   
    21   10   11 1   
    22   10   41 1   
    23   11   12 2   
    24   11   42 1   
    25   12   13 1   
    26   12   17 1   
    27   13   14 1   
    28   13   43 1   
    29   13   44 1   
    30   14   15 1   
    31   14   45 1   
    32   14   46 1   
    33   15   16 1   
    34   15   47 1   
    35   15   48 1   
    36   16   17 1   
    37   16   18 1   
    38   16   19 1   
    39   17   21 1   
    40   17   49 1   
    41   18   50 1   
    42   18   51 1   
    43   18   52 1   
    44   19   20 1   
    45   19   22 1   
    46   19   53 1   
    47   20   21 1   
    48   20   54 1   
    49   20   55 1   
    50   21   56 1   
    51   21   57 1   
    52   22   23 1   
    53   22   24 1   
    54   22   58 1   
    55   23   59 1   
    56   23   60 1   
    57   23   61 1   
    58   24   25 2   
    59   24   62 1   
    60   25   26 1   
    61   25   63 1   
    62   26   27 1   
    63   26   28 1   
    64   26   64 1   
    65   27   65 1   
    66   27   66 1   
    67   27   67 1   
    68   28   29 1   
    69   28   30 1   
    70   28   68 1   
    71   29   69 1   
    72   29   70 1   
    73   29   71 1   
    74   30   72 1   
    75   30   73 1   
    76   30   74 1   
@<TRIPOS>SUBSTRUCTURE
     1 V2H         1 TEMP              0 ****  ****    0 ROOT
