@<TRIPOS>MOLECULE
molecule
   74    76     1     0     0
SMALL
bcc


@<TRIPOS>ATOM
      1 O30          0.0000     0.0000     0.0000 oh         1 V2H      -0.598800
      2 CAN          1.4290     0.0000     0.0000 c3         1 V2H       0.189300
      3 CAO          1.9450     0.0000     1.4430 c3         1 V2H      -0.098400
      4 CAZ          1.4840    -1.2700     2.1580 c3         1 V2H       0.152100
      5 OAG          1.8420    -1.1940     3.5400 oh         1 V2H      -0.610800
      6 CAT          1.9390    -1.2490    -0.6890 ce         1 V2H      -0.087200
      7 CAA          2.4860    -1.2040    -1.9040 c2         1 V2H      -0.209000
      8 CAU          1.8030    -2.5210     0.0510 ce         1 V2H      -0.080200
      9 CAS          2.1530    -2.4950     1.5250 c3         1 V2H      -0.045200
     10 CAH          1.3860    -3.6520    -0.5560 cf         1 V2H      -0.120000
     11 CAI          1.0550    -3.6370    -1.9820 cf         1 V2H      -0.159000
     12 CAV          0.6440    -4.7540    -2.5830 c2         1 V2H      -0.095400
     13 CAM          0.4960    -6.0740    -1.8380 c3         1 V2H      -0.044200
     14 CAL         -0.8760    -6.6920    -2.1010 c3         1 V2H      -0.078400
     15 CAR         -1.2130    -6.7150    -3.6010 c3         1 V2H      -0.065400
     16 CBC         -1.1840    -5.2890    -4.0970 c3         1 V2H      -0.061000
     17 CBA          0.2860    -4.8000    -4.0390 c3         1 V2H      -0.034500
     18 CAF         -2.0380    -4.4160    -3.1750 c3         1 V2H      -0.092100
     19 CBB         -1.5690    -5.0190    -5.5430 c3         1 V2H      -0.050700
     20 CAQ         -0.7300    -3.7830    -5.9600 c3         1 V2H      -0.079400
     21 CAP          0.1770    -3.4550    -4.7620 c3         1 V2H      -0.079400
     22 CAY         -3.0640    -4.7050    -5.6450 c3         1 V2H      -0.036500
     23 CAE         -3.8710    -5.8980    -5.1280 c3         1 V2H      -0.089100
     24 CAK         -3.4240    -4.4420    -7.0850 c2         1 V2H      -0.170200
     25 CAJ         -3.9280    -3.2840    -7.4320 c2         1 V2H      -0.172200
     26 CAX         -4.2900    -3.0200    -8.8710 c3         1 V2H      -0.034500
     27 CAD         -3.4820    -1.8280    -9.3890 c3         1 V2H      -0.085100
     28 CAW         -5.7840    -2.7070    -8.9730 c3         1 V2H      -0.068700
     29 CAB         -6.1500    -2.4380   -10.4340 c3         1 V2H      -0.087600
     30 CAC         -6.5910    -3.8980    -8.4550 c3         1 V2H      -0.087600
     31 HO30        -0.3140     0.8020    -0.3840 ho         1 V2H       0.401000
     32 HAN          1.7990     0.8770    -0.5180 h1         1 V2H       0.037700
     33 HAO          1.5540     0.8660     1.9640 hc         1 V2H       0.057200
     34 HAOA         3.0280     0.0350     1.4370 hc         1 V2H       0.057200
     35 HAZ          0.4080    -1.3620     2.0650 h1         1 V2H       0.053700
     36 HOAG         1.0680    -1.2830     4.0700 ho         1 V2H       0.402000
     37 HAA          2.5730    -0.2570    -2.4240 ha         1 V2H       0.122000
     38 HAAA         2.8410    -2.1130    -2.3730 ha         1 V2H       0.122000
     39 HAS          3.2280    -2.4230     1.6430 hc         1 V2H       0.057200
     40 HASA         1.7880    -3.3960     2.0020 hc         1 V2H       0.057200
     41 HAH          1.2950    -4.5700     0.0120 ha         1 V2H       0.134000
     42 HAI          1.1470    -2.7190    -2.5500 ha         1 V2H       0.146000
     43 HAM          0.6080    -5.8960    -0.7750 hc         1 V2H       0.048700
     44 HAMA         1.2650    -6.7590    -2.1730 hc         1 V2H       0.048700
     45 HAL         -0.8820    -7.7070    -1.7240 hc         1 V2H       0.043200
     46 HALA        -1.6280    -6.1120    -1.5810 hc         1 V2H       0.043200
     47 HAR         -0.4740    -7.3030    -4.1330 hc         1 V2H       0.044700
     48 HARA        -2.2010    -7.1350    -3.7480 hc         1 V2H       0.044700
     49 HBA          0.9370    -5.4770    -4.5780 hc         1 V2H       0.065700
     50 HAF         -1.4900    -4.2080    -2.2640 hc         1 V2H       0.041033
     51 HAFA        -2.2740    -3.4850    -3.6750 hc         1 V2H       0.041033
     52 HAFB        -2.9560    -4.9380    -2.9320 hc         1 V2H       0.041033
     53 HBB         -1.3150    -5.8700    -6.1630 hc         1 V2H       0.054700
     54 HAQ         -0.1260    -4.0210    -6.8280 hc         1 V2H       0.045700
     55 HAQA        -1.3830    -2.9450    -6.1720 hc         1 V2H       0.045700
     56 HAP          1.1520    -3.1230    -5.1000 hc         1 V2H       0.047700
     57 HAPA        -0.2880    -2.7140    -4.1230 hc         1 V2H       0.047700
     58 HAY         -3.2910    -3.8290    -5.0500 hc         1 V2H       0.061700
     59 HAE         -4.8190    -5.9450    -5.6490 hc         1 V2H       0.036700
     60 HAEA        -4.0490    -5.7790    -4.0660 hc         1 V2H       0.036700
     61 HAEB        -3.3170    -6.8120    -5.3010 hc         1 V2H       0.036700
     62 HAK         -3.2660    -5.2100    -7.8320 ha         1 V2H       0.124000
     63 HAJ         -4.0870    -2.5160    -6.6840 ha         1 V2H       0.124000
     64 HAX         -4.0630    -3.8960    -9.4670 hc         1 V2H       0.052700
     65 HAD         -2.4520    -1.9210    -9.0650 hc         1 V2H       0.034367
     66 HADA        -3.5200    -1.8090   -10.4710 hc         1 V2H       0.034367
     67 HADB        -3.9020    -0.9100    -8.9960 hc         1 V2H       0.034367
     68 HAW         -6.0100    -1.8310    -8.3780 hc         1 V2H       0.049700
     69 HAB         -5.6750    -3.1790   -11.0670 hc         1 V2H       0.033700
     70 HABA        -7.2250    -2.4970   -10.5540 hc         1 V2H       0.033700
     71 HABB        -5.8080    -1.4500   -10.7170 hc         1 V2H       0.033700
     72 HAC         -6.5320    -3.9310    -7.3740 hc         1 V2H       0.033700
     73 HACA        -7.6260    -3.7920    -8.7570 hc         1 V2H       0.033700
     74 HACB        -6.1870    -4.8150    -8.8670 hc         1 V2H       0.033700
@<TRIPOS>BOND
     1     1     2 1
     2     1    31 1
     3     2     6 1
     4     2     3 1
     5     2    32 1
     6     3     4 1
     7     3    33 1
     8     3    34 1
     9     5     4 1
    10     4     9 1
    11     4    35 1
    12     5    36 1
    13     7     6 2
    14     6     8 1
    15     7    37 1
    16     7    38 1
    17    10     8 2
    18     8     9 1
    19     9    39 1
    20     9    40 1
    21    11    10 1
    22    10    41 1
    23    12    11 2
    24    11    42 1
    25    17    12 1
    26    12    13 1
    27    13    14 1
    28    13    43 1
    29    13    44 1
    30    15    14 1
    31    14    45 1
    32    14    46 1
    33    16    15 1
    34    15    47 1
    35    15    48 1
    36    19    16 1
    37    17    16 1
    38    16    18 1
    39    21    17 1
    40    17    49 1
    41    18    50 1
    42    18    51 1
    43    18    52 1
    44    20    19 1
    45    19    22 1
    46    19    53 1
    47    20    21 1
    48    20    54 1
    49    20    55 1
    50    21    56 1
    51    21    57 1
    52    24    22 1
    53    22    23 1
    54    22    58 1
    55    23    59 1
    56    23    60 1
    57    23    61 1
    58    25    24 2
    59    24    62 1
    60    26    25 1
    61    25    63 1
    62    28    26 1
    63    27    26 1
    64    26    64 1
    65    27    65 1
    66    27    66 1
    67    27    67 1
    68    29    28 1
    69    30    28 1
    70    28    68 1
    71    29    69 1
    72    29    70 1
    73    29    71 1
    74    30    72 1
    75    30    73 1
    76    30    74 1
@<TRIPOS>SUBSTRUCTURE
     1 V2H         1 TEMP              0 ****  ****    0 ROOT
