@<TRIPOS>MOLECULE
molecule
   29    30     1     0     0
SMALL
bcc


@<TRIPOS>ATOM
      1 N10          0.0000     0.0000     0.0000 nc         1 V2Z      -0.525300
      2 C11          1.3090     0.0000     0.0000 cd         1 V2Z       0.356300
      3 C12          2.0170     0.0000     1.2240 c          1 V2Z       0.548200
      4 C14          1.8300     0.0000    -3.7940 c3         1 V2Z      -0.095100
      5 C15          1.0670    -0.0000    -2.4680 c3         1 V2Z      -0.076400
      6 C16          2.0620     0.0000    -1.3060 c3         1 V2Z      -0.088700
      7 C7          -0.6820    -0.0010     1.1510 cc         1 V2Z       0.075400
      8 C6          -0.0190    -0.0000     2.3590 cd         1 V2Z      -0.042400
      9 C8          -2.1650    -0.0010     1.1260 ca         1 V2Z      -0.149100
     10 C9          -2.8550    -0.0010    -0.0890 ca         1 V2Z      -0.063000
     11 C4          -2.8940    -0.0080     2.3150 ca         1 V2Z       0.414200
     12 N3          -4.2110    -0.0090     2.2940 nb         1 V2Z      -0.686000
     13 C2          -4.8890    -0.0040     1.1620 ca         1 V2Z       0.417200
     14 C1          -4.2400    -0.0020    -0.0580 ca         1 V2Z      -0.253300
     15 O6           3.2370     0.0010     1.2290 o          1 V2Z      -0.632500
     16 N7           1.3320    -0.0000     2.3870 ns         1 V2Z      -0.388100
     17 H161         2.6850    -0.8840    -1.3640 hc         1 V2Z       0.068700
     18 H162         2.6850     0.8850    -1.3640 hc         1 V2Z       0.068700
     19 H7           1.8200     0.0000     3.2610 hn         1 V2Z       0.344500
     20 H141         2.4530     0.8850    -3.8520 hc         1 V2Z       0.033367
     21 H142         2.4530    -0.8840    -3.8520 hc         1 V2Z       0.033367
     22 H143         1.1250     0.0000    -4.6160 hc         1 V2Z       0.033367
     23 H151         0.4440     0.8840    -2.4100 hc         1 V2Z       0.050700
     24 H152         0.4450    -0.8850    -2.4100 hc         1 V2Z       0.050700
     25 H6          -0.5810    -0.0010     3.2860 h4         1 V2Z       0.164000
     26 H9          -2.3210     0.0000    -1.0310 ha         1 V2Z       0.161000
     27 H4          -2.3720    -0.0120     3.2640 h4         1 V2Z       0.014100
     28 H1          -4.8090    -0.0000    -0.9810 ha         1 V2Z       0.142000
     29 H2          -5.9720    -0.0050     1.1900 h4         1 V2Z       0.024100
@<TRIPOS>BOND
     1     1     2 2
     2     1     7 1
     3     2     3 1
     4     2     6 1
     5     3    15 2
     6     3    16 1
     7     4     5 1
     8     5     6 1
     9     7     8 2
    10     7     9 1
    11     8    16 1
    12     9    10 ar
    13     9    11 ar
    14    10    14 ar
    15    11    12 ar
    16    12    13 ar
    17    13    14 ar
    18     6    17 1
    19     6    18 1
    20    16    19 1
    21     4    20 1
    22     4    21 1
    23     4    22 1
    24     5    23 1
    25     5    24 1
    26     8    25 1
    27    10    26 1
    28    11    27 1
    29    14    28 1
    30    13    29 1
@<TRIPOS>SUBSTRUCTURE
     1 V2Z         1 TEMP              0 ****  ****    0 ROOT
