@<TRIPOS>MOLECULE
V30
   35    36     1     0     0
SMALL
bcc


@<TRIPOS>ATOM
      1 N1I          0.0000     0.0000     0.0000 nc         1 V30      -0.546100
      2 N1J          0.4050    -0.0000    -5.1290 ns         1 V30      -0.177900
      3 N1K          2.0270     0.0000     1.1620 ns         1 V30       0.052600
      4 CAA         -3.3610    -0.0010     4.1640 c3         1 V30       0.110200
      5 CAB         -0.4790    -0.0020     4.9260 c3         1 V30       0.068200
      6 OAC          2.4690    -0.0000    -4.3170 o          1 V30      -0.631100
      7 OAD          2.0260    -0.0010     3.3920 o          1 V30      -0.673500
      8 OAE         -1.0160     1.2230    -7.3340 oh         1 V30      -0.595800
      9 CAF         -0.2880     0.0010    -7.4750 c3         1 V30       0.210400
     10 CAG          0.8990     0.0010    -6.5080 c3         1 V30       0.044000
     11 CAH          0.7680     0.0000    -2.6830 c3         1 V30       0.018700
     12 SAL          2.1700    -0.0010    -1.5380 ss         1 V30      -0.221300
     13 SAM         -2.4420    -0.0010     1.4290 ss         1 V30      -0.237800
     14 CAN          1.2760    -0.0000    -4.1010 c          1 V30       0.581100
     15 CAO         -2.2290    -0.0010     3.1690 cc         1 V30      -0.011400
     16 CAP         -0.9510    -0.0010     3.4950 cd         1 V30      -0.032300
     17 CAQ          1.3110     0.0000     0.0000 cd         1 V30       0.325800
     18 CAR          1.3920    -0.0010     2.3500 c          1 V30       0.623100
     19 CAS         -0.7050    -0.0010     1.1480 cc         1 V30       0.283300
     20 CAT         -0.0350    -0.0010     2.3700 cd         1 V30      -0.245600
     21 HN1J        -0.5800    -0.0170    -4.9510 hn         1 V30       0.182500
     22 HN1K         3.0270     0.0000     1.1310 hn         1 V30       0.192500
     23 HAA         -3.2960    -0.8870     4.7850 hc         1 V30       0.012700
     24 HAAA        -3.2940     0.8820     4.7880 hc         1 V30       0.012700
     25 HAAB        -4.3060     0.0010     3.6350 hc         1 V30       0.012700
     26 HAB         -1.3360    -0.0130     5.5890 hc         1 V30       0.018700
     27 HABA         0.1280    -0.8810     5.1060 hc         1 V30       0.018700
     28 HABB         0.1100     0.8880     5.1120 hc         1 V30       0.018700
     29 HOAE        -1.6010     1.3260    -8.0660 ho         1 V30       0.398000
     30 HAF         -0.9380    -0.8360    -7.2490 h1         1 V30      -0.005800
     31 HAFA         0.0750    -0.0890    -8.4920 h1         1 V30      -0.005800
     32 HAG          1.5020    -0.8830    -6.6760 h1         1 V30       0.035200
     33 HAGA         1.5010     0.8860    -6.6760 h1         1 V30       0.035200
     34 HAH          0.1640    -0.8840    -2.5150 h1         1 V30       0.065700
     35 HAHA         0.1660     0.8850    -2.5150 h1         1 V30       0.065700
@<TRIPOS>BOND
     1     1    17 2   
     2     1    19 1   
     3     2    10 1   
     4     2    14 1   
     5     2    21 1   
     6     3    17 1   
     7     3    18 1   
     8     3    22 1   
     9     4    15 1   
    10     4    23 1   
    11     4    24 1   
    12     4    25 1   
    13     5    16 1   
    14     5    26 1   
    15     5    27 1   
    16     5    28 1   
    17     6    14 2   
    18     7    18 2   
    19     8     9 1   
    20     8    29 1   
    21     9    10 1   
    22     9    30 1   
    23     9    31 1   
    24    10    32 1   
    25    10    33 1   
    26    11    12 1   
    27    11    14 1   
    28    11    34 1   
    29    11    35 1   
    30    12    17 1   
    31    13    15 1   
    32    13    19 1   
    33    15    16 2   
    34    16    20 1   
    35    18    20 1   
    36    19    20 2   
@<TRIPOS>SUBSTRUCTURE
     1 V30         1 TEMP              0 ****  ****    0 ROOT
