@<TRIPOS>MOLECULE
molecule
   50    53     1     0     0
SMALL
bcc


@<TRIPOS>ATOM
      1 O2           0.0000     0.0000     0.0000 o          1 V37      -0.552000
      2 C1           1.2150     0.0000     0.0000 c          1 V37       0.636700
      3 C2           1.9530     0.0000     1.2790 ca         1 V37      -0.136600
      4 C7           3.3490     0.0010     1.2830 ca         1 V37      -0.074500
      5 C6           4.0320     0.0020     2.4820 ca         1 V37      -0.144500
      6 C5           3.3370     0.0010     3.6780 ca         1 V37      -0.098000
      7 C4           1.9540     0.0010     3.6820 ca         1 V37      -0.144500
      8 C3           1.2580     0.0060     2.4900 ca         1 V37      -0.074500
      9 O1           1.8880    -0.0060    -1.1660 os         1 V37      -0.416900
     10 C8           1.0970    -0.0060    -2.3850 c3         1 V37       0.150100
     11 C12          0.8210     1.4380    -2.8120 c3         1 V37      -0.075400
     12 C11          2.1480     2.1040    -3.2080 c3         1 V37       0.152000
     13 C13          3.1800     1.7970    -2.0980 c3         1 V37      -0.111900
     14 C14          3.8240     0.4590    -2.5160 c3         1 V37      -0.111900
     15 C10          3.1240     0.0790    -3.8410 c3         1 V37       0.152000
     16 C9           1.8660    -0.7340    -3.4910 c3         1 V37      -0.075400
     17 N            2.6660     1.3790    -4.3980 n3         1 V37      -0.698600
     18 C15          3.7820     2.1090    -5.0150 c3         1 V37       0.154800
     19 C16          3.2410     3.3110    -5.7900 c3         1 V37      -0.034100
     20 C17          4.3850     4.0600    -6.4220 ca         1 V37      -0.084300
     21 C22          5.0120     5.0780    -5.7270 ca         1 V37      -0.125000
     22 C21          6.0630     5.7640    -6.3070 ca         1 V37      -0.127000
     23 C20          6.4860     5.4350    -7.5810 ca         1 V37      -0.131000
     24 C19          5.8580     4.4170    -8.2750 ca         1 V37      -0.127000
     25 C18          4.8120     3.7260    -7.6930 ca         1 V37      -0.125000
     26 H7           3.8950     0.0020     0.3470 ha         1 V37       0.152000
     27 H3           0.1740     0.0060     2.4940 ha         1 V37       0.152000
     28 H6           5.1160     0.0020     2.4870 ha         1 V37       0.136500
     29 H5           3.8780    -0.0010     4.6160 ha         1 V37       0.133000
     30 H4           1.4160     0.0030     4.6220 ha         1 V37       0.136500
     31 H8           0.1580    -0.5140    -2.2050 h1         1 V37       0.073700
     32 H121         0.1450     1.4430    -3.6580 hc         1 V37       0.061450
     33 H122         0.3740     1.9810    -1.9880 hc         1 V37       0.061450
     34 H91C         2.1550    -1.7190    -3.1440 hc         1 V37       0.061450
     35 H92C         1.2390    -0.8280    -4.3690 hc         1 V37       0.061450
     36 H11          2.0400     3.1670    -3.3880 h1         1 V37       0.071200
     37 H131         2.6850     1.6950    -1.1400 hc         1 V37       0.054450
     38 H132         3.9300     2.5790    -2.0540 hc         1 V37       0.054450
     39 H141         4.8880     0.5860    -2.6750 hc         1 V37       0.054450
     40 H142         3.6420    -0.2980    -1.7630 hc         1 V37       0.054450
     41 H10          3.7830    -0.4500    -4.5190 h1         1 V37       0.071200
     42 H151         4.4590     2.4540    -4.2420 h1         1 V37       0.039700
     43 H152         4.3130     1.4520    -5.6920 h1         1 V37       0.039700
     44 H161         2.7090     3.9680    -5.1130 hc         1 V37       0.055200
     45 H162         2.5640     2.9660    -6.5630 hc         1 V37       0.055200
     46 H22          4.6810     5.3360    -4.7290 ha         1 V37       0.130000
     47 H18          4.3210     2.9280    -8.2380 ha         1 V37       0.130000
     48 H21          6.5550     6.5620    -5.7620 ha         1 V37       0.128500
     49 H20          7.3070     5.9740    -8.0360 ha         1 V37       0.128000
     50 H19          6.1910     4.1570    -9.2730 ha         1 V37       0.128500
@<TRIPOS>BOND
     1    17    15 1
     2    17    12 1
     3    17    18 1
     4     2     9 1
     5     2     3 1
     6     2     1 2
     7     9    10 1
     8     3     8 ar
     9     3     4 ar
    10     8     7 ar
    11     7     6 ar
    12     6     5 ar
    13     5     4 ar
    14    10    16 1
    15    10    11 1
    16    16    15 1
    17    15    14 1
    18    12    11 1
    19    12    13 1
    20    13    14 1
    21    18    19 1
    22    19    20 1
    23    20    25 ar
    24    20    21 ar
    25    25    24 ar
    26    24    23 ar
    27    23    22 ar
    28    22    21 ar
    29     4    26 1
    30     8    27 1
    31     5    28 1
    32     6    29 1
    33     7    30 1
    34    10    31 1
    35    11    32 1
    36    11    33 1
    37    16    34 1
    38    16    35 1
    39    12    36 1
    40    13    37 1
    41    13    38 1
    42    14    39 1
    43    14    40 1
    44    15    41 1
    45    18    42 1
    46    18    43 1
    47    19    44 1
    48    19    45 1
    49    21    46 1
    50    25    47 1
    51    22    48 1
    52    23    49 1
    53    24    50 1
@<TRIPOS>SUBSTRUCTURE
     1 V37         1 TEMP              0 ****  ****    0 ROOT
