@<TRIPOS>MOLECULE
molecule
   55    58     1     0     0
SMALL
bcc


@<TRIPOS>ATOM
      1 O2           0.0000     0.0000     0.0000 o          1 V38      -0.530000
      2 C1           1.2150     0.0000     0.0000 c          1 V38       0.637700
      3 C2           1.9530     0.0000     1.2800 ca         1 V38      -0.150600
      4 C7           3.3490     0.0000     1.2830 ca         1 V38      -0.073000
      5 C6           4.0320    -0.0000     2.4820 ca         1 V38      -0.136000
      6 C5           3.3370    -0.0010     3.6770 ca         1 V38      -0.080000
      7 C4           1.9540    -0.0010     3.6810 ca         1 V38      -0.136000
      8 C3           1.2580     0.0050     2.4910 ca         1 V38      -0.073000
      9 O1           1.8880    -0.0050    -1.1670 os         1 V38      -0.436900
     10 C8           1.0980    -0.0040    -2.3850 c3         1 V38       0.136100
     11 C12          0.8200     1.4400    -2.8110 c3         1 V38      -0.109400
     12 C11          2.1480     2.1060    -3.2070 c3         1 V38       0.128500
     13 C13          3.1810     1.7980    -2.0970 c3         1 V38      -0.098400
     14 C14          3.8250     0.4600    -2.5160 c3         1 V38      -0.098400
     15 C10          3.1240     0.0810    -3.8410 c3         1 V38       0.128500
     16 C9           1.8660    -0.7320    -3.4910 c3         1 V38      -0.109400
     17 N            2.6660     1.3810    -4.3980 n4         1 V38      -0.580800
     18 C23          3.7920     2.1110    -4.9970 c3         1 V38       0.101100
     19 C15          1.5970     1.1750    -5.3830 c3         1 V38       0.106800
     20 C16          1.2230     2.5160    -6.0190 c3         1 V38       0.183400
     21 O3           0.7680     3.4140    -5.0040 oh         1 V38      -0.622800
     22 C17          0.1250     2.3040    -7.0290 ca         1 V38      -0.168300
     23 C22         -1.1960     2.2850    -6.6220 ca         1 V38      -0.108500
     24 C21         -2.2020     2.0900    -7.5490 ca         1 V38      -0.118000
     25 C20         -1.8890     1.9140    -8.8830 ca         1 V38      -0.095000
     26 C19         -0.5670     1.9330    -9.2910 ca         1 V38      -0.118000
     27 C18          0.4390     2.1330    -8.3650 ca         1 V38      -0.108500
     28 H7           3.8950     0.0000     0.3470 ha         1 V38       0.144500
     29 H3           0.1750     0.0050     2.4950 ha         1 V38       0.144500
     30 H6           5.1160    -0.0000     2.4870 ha         1 V38       0.147500
     31 H5           3.8790    -0.0030     4.6160 ha         1 V38       0.147000
     32 H4           1.4160     0.0010     4.6210 ha         1 V38       0.147500
     33 H8           0.1590    -0.5130    -2.2050 h1         1 V38       0.107700
     34 H121         0.3740     1.9830    -1.9860 hc         1 V38       0.092700
     35 H122         0.1450     1.4460    -3.6580 hc         1 V38       0.092700
     36 H91C         1.2380    -0.8250    -4.3690 hc         1 V38       0.092700
     37 H92C         2.1550    -1.7170    -3.1450 hc         1 V38       0.092700
     38 H11          2.0410     3.1690    -3.3860 hx         1 V38       0.122200
     39 H131         3.9300     2.5800    -2.0520 hc         1 V38       0.090950
     40 H132         2.6850     1.6950    -1.1390 hc         1 V38       0.090950
     41 H141         3.6430    -0.2980    -1.7630 hc         1 V38       0.090950
     42 H142         4.8890     0.5870    -2.6750 hc         1 V38       0.090950
     43 H10          3.7830    -0.4480    -4.5180 hx         1 V38       0.122200
     44 H231         3.9460     1.7670    -6.0130 hx         1 V38       0.091700
     45 H232         4.6890     1.9330    -4.4170 hx         1 V38       0.091700
     46 H233         3.5720     3.1720    -5.0050 hx         1 V38       0.091700
     47 H151         1.9410     0.4950    -6.1520 hx         1 V38       0.112700
     48 H152         0.7290     0.7540    -4.8910 hx         1 V38       0.112700
     49 H16          2.0910     2.9370    -6.5110 h1         1 V38       0.050700
     50 HA           0.7520     4.2920    -5.3460 ho         1 V38       0.438000
     51 H22         -1.4420     2.4240    -5.5760 ha         1 V38       0.134500
     52 H18          1.4740     2.1480    -8.6850 ha         1 V38       0.134500
     53 H21         -3.2370     2.0750    -7.2290 ha         1 V38       0.149000
     54 H20         -2.6780     1.7590    -9.6090 ha         1 V38       0.150000
     55 H19         -0.3210     1.7970   -10.3370 ha         1 V38       0.149000
@<TRIPOS>BOND
     1    17    15 1
     2    17    12 1
     3    17    19 1
     4    17    18 1
     5     2     9 1
     6     2     3 1
     7     2     1 2
     8     9    10 1
     9     3     8 ar
    10     3     4 ar
    11     8     7 ar
    12    21    20 1
    13     7     6 ar
    14     6     5 ar
    15     5     4 ar
    16    10    16 1
    17    10    11 1
    18    16    15 1
    19    15    14 1
    20    12    11 1
    21    12    13 1
    22    13    14 1
    23    19    20 1
    24    20    22 1
    25    22    27 ar
    26    22    23 ar
    27    27    26 ar
    28    26    25 ar
    29    25    24 ar
    30    24    23 ar
    31     4    28 1
    32     8    29 1
    33     5    30 1
    34     6    31 1
    35     7    32 1
    36    10    33 1
    37    11    34 1
    38    11    35 1
    39    16    36 1
    40    16    37 1
    41    12    38 1
    42    13    39 1
    43    13    40 1
    44    14    41 1
    45    14    42 1
    46    15    43 1
    47    18    44 1
    48    18    45 1
    49    18    46 1
    50    19    47 1
    51    19    48 1
    52    20    49 1
    53    21    50 1
    54    23    51 1
    55    27    52 1
    56    24    53 1
    57    25    54 1
    58    26    55 1
@<TRIPOS>SUBSTRUCTURE
     1 V38         1 TEMP              0 ****  ****    0 ROOT
