@<TRIPOS>MOLECULE
V38
   55    58     1     0     0
SMALL
bcc


@<TRIPOS>ATOM
      1 O2           0.0000     0.0000     0.0000 o          1 V38      -0.564000
      2 C1           1.2150     0.0000     0.0000 c          1 V38       0.709700
      3 C2           1.9530     0.0000     1.2800 ca         1 V38      -0.171600
      4 C7           3.3490     0.0000     1.2830 ca         1 V38      -0.046000
      5 C6           4.0320    -0.0000     2.4820 ca         1 V38      -0.107000
      6 C5           3.3370    -0.0010     3.6770 ca         1 V38      -0.047000
      7 C4           1.9540    -0.0010     3.6810 ca         1 V38      -0.107000
      8 C3           1.2580     0.0050     2.4910 ca         1 V38      -0.046000
      9 O1           1.8880    -0.0050    -1.1670 os         1 V38      -0.413900
     10 C8           1.0980    -0.0040    -2.3850 c3         1 V38       0.174100
     11 C12          0.8200     1.4400    -2.8110 c3         1 V38      -0.064400
     12 C11          2.1480     2.1060    -3.2070 c3         1 V38      -0.005000
     13 C13          3.1810     1.7980    -2.0970 c3         1 V38      -0.055400
     14 C14          3.8250     0.4600    -2.5160 c3         1 V38      -0.055400
     15 C10          3.1240     0.0810    -3.8410 c3         1 V38      -0.005000
     16 C9           1.8660    -0.7320    -3.4910 c3         1 V38      -0.064400
     17 N            2.6660     1.3810    -4.3980 n4         1 V38       0.035200
     18 C23          3.7920     2.1110    -4.9970 c3         1 V38       0.017100
     19 C15          1.5970     1.1750    -5.3830 c3         1 V38      -0.046200
     20 C16          1.2230     2.5160    -6.0190 c3         1 V38       0.249400
     21 O3           0.7680     3.4140    -5.0040 oh         1 V38      -0.608800
     22 C17          0.1250     2.3040    -7.0290 ca         1 V38      -0.188300
     23 C22         -1.1960     2.2850    -6.6220 ca         1 V38      -0.078000
     24 C21         -2.2020     2.0900    -7.5490 ca         1 V38      -0.087500
     25 C20         -1.8890     1.9140    -8.8830 ca         1 V38      -0.062000
     26 C19         -0.5670     1.9330    -9.2910 ca         1 V38      -0.087500
     27 C18          0.4390     2.1330    -8.3650 ca         1 V38      -0.078000
     28 H7           3.8950     0.0000     0.3470 ha         1 V38       0.115000
     29 H3           0.1750     0.0050     2.4950 ha         1 V38       0.115000
     30 H6           5.1160    -0.0000     2.4870 ha         1 V38       0.116000
     31 H5           3.8790    -0.0030     4.6160 ha         1 V38       0.113000
     32 H4           1.4160     0.0010     4.6210 ha         1 V38       0.116000
     33 H8           0.1590    -0.5130    -2.2050 h1         1 V38       0.073700
     34 H121         0.3740     1.9830    -1.9860 hc         1 V38       0.065200
     35 H122         0.1450     1.4460    -3.6580 hc         1 V38       0.065200
     36 H91C         1.2380    -0.8250    -4.3690 hc         1 V38       0.065200
     37 H92C         2.1550    -1.7170    -3.1450 hc         1 V38       0.065200
     38 H11          2.0410     3.1690    -3.3860 hx         1 V38       0.100200
     39 H131         3.9300     2.5800    -2.0520 hc         1 V38       0.066700
     40 H132         2.6850     1.6950    -1.1390 hc         1 V38       0.066700
     41 H141         3.6430    -0.2980    -1.7630 hc         1 V38       0.066700
     42 H142         4.8890     0.5870    -2.6750 hc         1 V38       0.066700
     43 H10          3.7830    -0.4480    -4.5180 hx         1 V38       0.100200
     44 H231         3.9460     1.7670    -6.0130 hx         1 V38       0.069033
     45 H232         4.6890     1.9330    -4.4170 hx         1 V38       0.069033
     46 H233         3.5720     3.1720    -5.0050 hx         1 V38       0.069033
     47 H151         1.9410     0.4950    -6.1520 hx         1 V38       0.099200
     48 H152         0.7290     0.7540    -4.8910 hx         1 V38       0.099200
     49 H16          2.0910     2.9370    -6.5110 h1         1 V38       0.021700
     50 HA           0.7520     4.2920    -5.3460 ho         1 V38       0.431000
     51 H22         -1.4420     2.4240    -5.5760 ha         1 V38       0.108000
     52 H18          1.4740     2.1480    -8.6850 ha         1 V38       0.108000
     53 H21         -3.2370     2.0750    -7.2290 ha         1 V38       0.118000
     54 H20         -2.6780     1.7590    -9.6090 ha         1 V38       0.118000
     55 H19         -0.3210     1.7970   -10.3370 ha         1 V38       0.118000
@<TRIPOS>BOND
     1     1     2 2   
     2     2     3 1   
     3     2     9 1   
     4     3     4 ar  
     5     3     8 ar  
     6     4     5 ar  
     7     4    28 1   
     8     5     6 ar  
     9     5    30 1   
    10     6     7 ar  
    11     6    31 1   
    12     7     8 ar  
    13     7    32 1   
    14     8    29 1   
    15     9    10 1   
    16    10    11 1   
    17    10    16 1   
    18    10    33 1   
    19    11    12 1   
    20    11    34 1   
    21    11    35 1   
    22    12    13 1   
    23    12    17 1   
    24    12    38 1   
    25    13    14 1   
    26    13    39 1   
    27    13    40 1   
    28    14    15 1   
    29    14    41 1   
    30    14    42 1   
    31    15    16 1   
    32    15    17 1   
    33    15    43 1   
    34    16    36 1   
    35    16    37 1   
    36    17    18 1   
    37    17    19 1   
    38    18    44 1   
    39    18    45 1   
    40    18    46 1   
    41    19    20 1   
    42    19    47 1   
    43    19    48 1   
    44    20    21 1   
    45    20    22 1   
    46    20    49 1   
    47    21    50 1   
    48    22    23 ar  
    49    22    27 ar  
    50    23    24 ar  
    51    23    51 1   
    52    24    25 ar  
    53    24    53 1   
    54    25    26 ar  
    55    25    54 1   
    56    26    27 ar  
    57    26    55 1   
    58    27    52 1   
@<TRIPOS>SUBSTRUCTURE
     1 V38         1 TEMP              0 ****  ****    0 ROOT
