@<TRIPOS>MOLECULE
molecule
   44    46     1     0     0
SMALL
bcc


@<TRIPOS>ATOM
      1 PA           0.0000     0.0000     0.0000 p5         1 V3A       1.433800
      2 O1A          1.6100     0.0000     0.0000 o          1 V3A      -0.850000
      3 O2A         -0.4940     0.0000     1.3950 o          1 V3A      -0.850000
      4 O3A         -0.5360     1.3140    -0.7600 os         1 V3A      -0.718800
      5 O5'         -0.5360    -1.3150    -0.7600 os         1 V3A      -0.587200
      6 PB          -0.6260     2.8730    -0.3680 p5         1 V3A       1.244600
      7 O2B          0.7320     3.3920    -0.0910 o          1 V3A      -0.798000
      8 O1B         -1.5440     3.0450     0.9450 o          1 V3A      -0.798000
      9 C3B         -1.3630     3.8050    -1.7500 c3         1 V3A      -0.149800
     10 F3B         -0.5660     3.6570    -2.8900 f          1 V3A      -0.273300
     11 PG          -1.4650     5.5720    -1.3060 p5         1 V3A       1.076700
     12 O1G          0.0120     6.1360    -1.0050 o          1 V3A      -0.798500
     13 O2G         -2.1150     6.3950    -2.5270 o          1 V3A      -0.798500
     14 O3G         -2.3080     5.7280    -0.1000 o          1 V3A      -0.798500
     15 C5'         -0.3180    -2.6390    -0.2700 c3         1 V3A       0.228400
     16 C4'         -0.9560    -3.6480    -1.2280 c3         1 V3A       0.130100
     17 O4'         -0.2670    -3.6280    -2.4830 os         1 V3A      -0.375600
     18 C1'          0.3250    -4.9120    -2.7390 c3         1 V3A       0.262800
     19 N9           0.2500    -5.2330    -4.1660 na         1 V3A      -0.253000
     20 C4           1.0620    -6.1050    -4.8460 ca         1 V3A       0.459800
     21 N3           2.0850    -6.8860    -4.5170 nb         1 V3A      -0.815000
     22 C2           2.6780    -7.6340    -5.4240 ca         1 V3A       0.596900
     23 N1           2.2980    -7.6500    -6.6870 nb         1 V3A      -0.780000
     24 C6           1.2830    -6.9040    -7.1100 ca         1 V3A       0.611200
     25 N6           0.8900    -6.9290    -8.4380 nv         1 V3A      -1.059500
     26 C5           0.6180    -6.0880    -6.1790 ca         1 V3A      -0.163200
     27 N7          -0.4230    -5.2220    -6.2430 nc         1 V3A      -0.618100
     28 C8          -0.6430    -4.7230    -5.0610 cd         1 V3A       0.389700
     29 C2'         -0.5190    -5.9180    -1.9150 c3         1 V3A      -0.162400
     30 C3'         -0.8310    -5.0730    -0.6480 c3         1 V3A       0.103100
     31 O3'         -2.0590    -5.4900    -0.0490 oh         1 V3A      -0.596800
     32 H3          -2.3570     3.4260    -1.9520 h1         1 V3A       0.031700
     33 H6           0.7460    -2.8290    -0.2030 h1         1 V3A       0.025700
     34 H7          -0.7660    -2.7400     0.7110 h1         1 V3A       0.025700
     35 H8          -2.0010    -3.4060    -1.3810 h1         1 V3A       0.084700
     36 H9           1.3530    -4.9220    -2.4000 h2         1 V3A       0.084700
     37 H10          3.5100    -8.2580    -5.1220 h5         1 V3A       0.015100
     38 H11          0.2100    -7.5950    -8.7460 hn         1 V3A       0.404800
     39 H12          1.3090    -6.3010    -9.0950 hn         1 V3A       0.404800
     40 H13         -1.4210    -4.0080    -4.8240 h5         1 V3A       0.085800
     41 H14         -1.4290    -6.1810    -2.4390 hc         1 V3A       0.056200
     42 H15          0.0640    -6.7950    -1.6610 hc         1 V3A       0.056200
     43 H16         -0.0130    -5.1270     0.0590 h1         1 V3A       0.047700
     44 H17         -1.8750    -6.0330     0.7000 ho         1 V3A       0.384000
@<TRIPOS>BOND
     1    22    23 ar
     2    22    21 ar
     3    23    24 ar
     4    21    20 ar
     5    24    25 1
     6    24    26 ar
     7    20    26 ar
     8    20    19 1
     9    29    18 1
    10    29    30 1
    11    26    27 1
    12    19    18 1
    13    19    28 1
    14    18    17 1
    15    31    30 1
    16    30    16 1
    17    17    16 1
    18    27    28 2
    19    16    15 1
    20     7     6 1
    21    15     5 1
    22     5     1 1
    23     6     4 1
    24     6     8 1
    25     6     9 1
    26    10     9 1
    27     4     1 1
    28     1     3 1
    29     1     2 1
    30     9    11 1
    31    11    14 1
    32    11    12 1
    33    11    13 1
    34     9    32 1
    35    15    33 1
    36    15    34 1
    37    16    35 1
    38    18    36 1
    39    22    37 1
    40    25    38 1
    41    25    39 1
    42    28    40 1
    43    29    41 1
    44    29    42 1
    45    30    43 1
    46    31    44 1
@<TRIPOS>SUBSTRUCTURE
     1 V3A         1 TEMP              0 ****  ****    0 ROOT
