@<TRIPOS>MOLECULE
molecule
   62    64     1     0     0
SMALL
bcc


@<TRIPOS>ATOM
      1 C06          0.0000     0.0000     0.0000 c3         1 V45       0.123100
      2 C08          0.7620    -0.0000     2.1520 c          1 V45       0.835600
      3 C10          3.2500     0.0010     1.9730 c3         1 V45       0.088700
      4 C11          3.4560     1.2500     2.8320 c3         1 V45      -0.095400
      5 C12          3.3730     2.4960     1.9470 c3         1 V45      -0.077700
      6 C13          3.4540     3.7490     2.8220 c3         1 V45      -0.090600
      7 C14          4.5360     2.4930     0.9520 c3         1 V45      -0.090600
      8 C15          3.4530    -1.2300     2.8200 c          1 V45       0.650100
      9 C17          4.8350    -2.6380     4.2500 c3         1 V45      -0.003300
     10 C18          6.3200    -3.0090     4.2620 c3         1 V45      -0.072400
     11 C19          6.7560    -3.4130     2.8520 c3         1 V45      -0.158700
     12 C20          6.0290    -4.7030     2.4090 c3         1 V45      -0.096400
     13 C21          7.1310    -5.4240     1.6010 c3         1 V45       0.093000
     14 C23          8.2220    -3.7890     2.8400 c          1 V45       0.702500
     15 C25          4.3750    -2.3600     5.6570 c          1 V45       0.552900
     16 C28          1.5410     0.0000     0.0000 c3         1 V45       0.059000
     17 N09          1.8910     0.0000     1.4290 n          1 V45      -0.521800
     18 N16          4.6380    -1.4430     3.4260 ns         1 V45      -0.574900
     19 N22          8.4020    -4.9210     2.1380 ns         1 V45      -0.589900
     20 O07         -0.3530    -0.0010     1.4130 os         1 V45      -0.370900
     21 O24          9.1050    -3.1610     3.3830 o          1 V45      -0.629500
     22 O27          2.5500    -2.0280     2.9540 o          1 V45      -0.580100
     23 O29          0.7520    -0.0020     3.3660 o          1 V45      -0.606500
     24 H1          -0.3760    -0.8940    -0.4820 h1         1 V45       0.084700
     25 H3           3.9650     0.0010     1.1590 h1         1 V45       0.072700
     26 H4           4.4300     1.2080     3.3040 hc         1 V45       0.074700
     27 H5           2.6870     1.2960     3.5930 hc         1 V45       0.074700
     28 H6           2.4340     2.4930     1.4060 hc         1 V45       0.052700
     29 H7           4.3910     3.7510     3.3650 hc         1 V45       0.035200
     30 H8           3.3980     4.6310     2.1950 hc         1 V45       0.035200
     31 H9           2.6290     3.7530     3.5250 hc         1 V45       0.035200
     32 H10          5.4720     2.4020     1.4910 hc         1 V45       0.035200
     33 H11          4.4280     1.6570     0.2720 hc         1 V45       0.035200
     34 H12          4.5320     3.4190     0.3900 hc         1 V45       0.035200
     35 H13          4.2610    -3.4590     3.8370 h1         1 V45       0.099700
     36 H14          6.9030    -2.1570     4.5910 hc         1 V45       0.067200
     37 H15          6.4790    -3.8390     4.9400 hc         1 V45       0.067200
     38 H16          6.5660    -2.6120     2.1470 hc         1 V45       0.083700
     39 H17          5.1800    -4.4700     1.7790 hc         1 V45       0.064200
     40 H18          5.7340    -5.2930     3.2690 hc         1 V45       0.064200
     41 H19          7.0620    -6.4950     1.7480 h1         1 V45       0.047700
     42 H20          7.0460    -5.1770     0.5500 h1         1 V45       0.047700
     43 H21          4.4180    -3.1430     6.4050 h4         1 V45       0.001200
     44 H23          1.8570    -0.9550    -0.4030 h1         1 V45       0.068700
     45 H24          1.8570     0.9550    -0.4030 h1         1 V45       0.068700
     46 H25          5.3730    -0.7700     3.3380 hn         1 V45       0.319500
     47 H26          9.2890    -5.3640     1.9980 hn         1 V45       0.340500
     48 C1          -0.5370     1.2550    -0.6900 c3         1 V45      -0.044100
     49 C2          -2.6290     0.6050    -1.8990 ca         1 V45      -0.127000
     50 C3          -4.0060     0.5270    -1.9890 ca         1 V45      -0.119000
     51 C4          -4.7940     1.0260    -0.9680 ca         1 V45      -0.120000
     52 C5          -4.2040     1.6010     0.1420 ca         1 V45       0.032400
     53 C6          -2.8250     1.6770     0.2320 ca         1 V45      -0.098000
     54 C7          -2.0380     1.1730    -0.7870 ca         1 V45      -0.081300
     55 H2          -0.1150     1.3290    -1.6850 hc         1 V45       0.063200
     56 H22         -0.2600     2.1300    -0.1140 hc         1 V45       0.063200
     57 H27         -2.0120     0.2130    -2.6990 ha         1 V45       0.129000
     58 H28         -4.4680     0.0790    -2.8600 ha         1 V45       0.136000
     59 H29         -5.8740     0.9660    -1.0380 ha         1 V45       0.144000
     60 H30         -2.3620     2.1280     1.1020 ha         1 V45       0.155000
     61 O26          3.9280    -1.2760     5.9430 o          1 V45      -0.491100
     62 Cl1         -5.1920     2.2280     1.4250 cl         1 V45      -0.104400
@<TRIPOS>BOND
     1    21    14 2
     2    19    14 1
     3    19    13 1
     4    14    11 1
     5    13    12 1
     6    11    10 1
     7    11    12 1
     8    10     9 1
     9    15     9 1
    10    15    61 2
    11     9    18 1
    12    18     8 1
    13    23     2 2
    14     8    22 2
    15     8     3 1
    16     2    20 1
    17     2    17 1
    18    20     1 1
    19     3    17 1
    20     3     4 1
    21    17    16 1
    22     1    16 1
    23     4     5 1
    24     6     5 1
    25     5     7 1
    26     1    24 1
    27     3    25 1
    28     4    26 1
    29     4    27 1
    30     5    28 1
    31     6    29 1
    32     6    30 1
    33     6    31 1
    34     7    32 1
    35     7    33 1
    36     7    34 1
    37     9    35 1
    38    10    36 1
    39    10    37 1
    40    11    38 1
    41    12    39 1
    42    12    40 1
    43    13    41 1
    44    13    42 1
    45    15    43 1
    46    16    44 1
    47    16    45 1
    48    18    46 1
    49    19    47 1
    50     1    48 1
    51    49    50 ar
    52    50    51 ar
    53    51    52 ar
    54    52    53 ar
    55    53    54 ar
    56    54    49 ar
    57    54    48 1
    58    52    62 1
    59    48    55 1
    60    48    56 1
    61    49    57 1
    62    50    58 1
    63    51    59 1
    64    53    60 1
@<TRIPOS>SUBSTRUCTURE
     1 V45         1 TEMP              0 ****  ****    0 ROOT
