@<TRIPOS>MOLECULE
V49
   31    33     1     0     0
SMALL
bcc


@<TRIPOS>ATOM
      1 F14          0.0000     0.0000     0.0000 f          1 V49      -0.083400
      2 C4           1.3510     0.0000     0.0000 ca         1 V49       0.182900
      3 C5           2.0430     0.0000     1.2000 ca         1 V49      -0.250500
      4 S7           1.1590    -0.0010     2.7240 sy         1 V49       0.955200
      5 O9          -0.1230     0.5430     2.4440 o          1 V49      -0.469300
      6 N10          0.9130    -1.5820     3.1470 nz         1 V49      -0.133500
      7 O8           2.0380     0.5440     3.6980 o          1 V49      -0.469300
      8 C6           3.4270    -0.0000     1.2030 ca         1 V49       0.182900
      9 F12          4.0990    -0.0010     2.3760 f          1 V49      -0.083400
     10 C1           4.1240    -0.0010     0.0070 ca         1 V49       0.164400
     11 F11          5.4750    -0.0010     0.0120 f          1 V49      -0.071900
     12 C3           2.0430    -0.0060    -1.2000 ca         1 V49       0.164400
     13 F13          1.3680    -0.0120    -2.3700 f          1 V49      -0.071900
     14 C2           3.4330    -0.0000    -1.1990 ca         1 V49       0.071900
     15 S15          4.3170    -0.0080    -2.7230 ss         1 V49      -0.164100
     16 C16          4.4640     1.7260    -3.0010 cc         1 V49       0.419100
     17 N20          4.0060     2.6390    -2.2130 nd         1 V49      -0.468100
     18 C19          4.1970     3.9270    -2.5610 ca         1 V49       0.057400
     19 C21          3.7990     5.0950    -1.8790 ca         1 V49      -0.040000
     20 C22          4.0860     6.3340    -2.3950 ca         1 V49      -0.087000
     21 C23          4.7720     6.4570    -3.5940 ca         1 V49      -0.063000
     22 C24          5.1720     5.3300    -4.2770 ca         1 V49      -0.046000
     23 C18          4.8900     4.0660    -3.7690 ca         1 V49       0.003900
     24 S17          5.2610     2.4570    -4.3860 ss         1 V49      -0.119100
     25 H1           0.2560    -1.6280     3.9010 hn         1 V49       0.318133
     26 H2           0.5540    -2.0860     2.3610 hn         1 V49       0.318133
     27 H3           3.2620     5.0140    -0.9420 ha         1 V49       0.110000
     28 H4           3.7740     7.2240    -1.8610 ha         1 V49       0.116000
     29 H5           4.9940     7.4390    -3.9930 ha         1 V49       0.118000
     30 H6           5.7080     5.4280    -5.2130 ha         1 V49       0.121000
     31 H103         1.7810    -1.9890     3.4360 hn         1 V49       0.318133
@<TRIPOS>BOND
     1     1     2 1   
     2     2     3 ar  
     3     2    12 ar  
     4     3     4 1   
     5     3     8 ar  
     6     4     5 2   
     7     4     6 1   
     8     4     7 2   
     9     6    25 1   
    10     6    26 1   
    11     6    31 1   
    12     8     9 1   
    13     8    10 ar  
    14    10    11 1   
    15    10    14 ar  
    16    12    13 1   
    17    12    14 ar  
    18    14    15 1   
    19    15    16 1   
    20    16    17 2   
    21    16    24 1   
    22    17    18 1   
    23    18    19 ar  
    24    18    23 ar  
    25    19    20 ar  
    26    19    27 1   
    27    20    21 ar  
    28    20    28 1   
    29    21    22 ar  
    30    21    29 1   
    31    22    23 ar  
    32    22    30 1   
    33    23    24 1   
@<TRIPOS>SUBSTRUCTURE
     1 V49         1 TEMP              0 ****  ****    0 ROOT
