@<TRIPOS>MOLECULE
molecule
   31    33     1     0     0
SMALL
bcc


@<TRIPOS>ATOM
      1 F14          0.0000     0.0000     0.0000 f          1 V49      -0.086900
      2 C4           1.3510     0.0000     0.0000 ca         1 V49       0.181400
      3 C5           2.0430     0.0000     1.2000 ca         1 V49      -0.379500
      4 S7           1.1590    -0.0010     2.7240 sy         1 V49       1.251200
      5 O9          -0.1230     0.5430     2.4440 o          1 V49      -0.489300
      6 N10          0.9130    -1.5820     3.1470 nz         1 V49      -0.810500
      7 O8           2.0380     0.5440     3.6980 o          1 V49      -0.489300
      8 C6           3.4270    -0.0000     1.2030 ca         1 V49       0.181400
      9 F12          4.0990    -0.0010     2.3760 f          1 V49      -0.086900
     10 C1           4.1240    -0.0010     0.0070 ca         1 V49       0.172900
     11 F11          5.4750    -0.0010     0.0120 f          1 V49      -0.067900
     12 C3           2.0430    -0.0060    -1.2000 ca         1 V49       0.172900
     13 F13          1.3680    -0.0120    -2.3700 f          1 V49      -0.067900
     14 C2           3.4330    -0.0000    -1.1990 ca         1 V49       0.022900
     15 S15          4.3170    -0.0080    -2.7230 ss         1 V49      -0.035100
     16 C16          4.4640     1.7260    -3.0010 cc         1 V49       0.379100
     17 N20          4.0060     2.6390    -2.2130 nd         1 V49      -0.594100
     18 C19          4.1970     3.9270    -2.5610 ca         1 V49       0.114400
     19 C21          3.7990     5.0950    -1.8790 ca         1 V49      -0.074000
     20 C22          4.0860     6.3340    -2.3950 ca         1 V49      -0.117000
     21 C23          4.7720     6.4570    -3.5940 ca         1 V49      -0.098000
     22 C24          5.1720     5.3300    -4.2770 ca         1 V49      -0.086000
     23 C18          4.8900     4.0660    -3.7690 ca         1 V49      -0.042100
     24 S17          5.2610     2.4570    -4.3860 ss         1 V49      -0.028100
     25 H1           0.2560    -1.6280     3.9010 hn         1 V49       0.496467
     26 H2           0.5540    -2.0860     2.3610 hn         1 V49       0.496467
     27 H3           3.2620     5.0140    -0.9420 ha         1 V49       0.143000
     28 H4           3.7740     7.2240    -1.8610 ha         1 V49       0.147000
     29 H5           4.9940     7.4390    -3.9930 ha         1 V49       0.150000
     30 H6           5.7080     5.4280    -5.2130 ha         1 V49       0.148000
     31 H103         1.7810    -1.9890     3.4360 hn         1 V49       0.496467
@<TRIPOS>BOND
     1    15    16 1
     2    15    14 1
     3    17    16 2
     4    17    18 1
     5    19    18 ar
     6    19    20 ar
     7    13    12 1
     8    16    24 1
     9    18    23 ar
    10    20    21 ar
    11    14    12 ar
    12    14    10 ar
    13    12     2 ar
    14    23    24 1
    15    23    22 ar
    16    10    11 1
    17    10     8 ar
    18     1     2 1
    19     2     3 ar
    20    21    22 ar
    21     8     3 ar
    22     8     9 1
    23     3     4 1
    24     6     4 1
    25     7     4 2
    26     4     5 2
    27     6    25 1
    28     6    26 1
    29    19    27 1
    30    20    28 1
    31    21    29 1
    32    22    30 1
    33    31     6 1
@<TRIPOS>SUBSTRUCTURE
     1 V49         1 TEMP              0 ****  ****    0 ROOT
