@<TRIPOS>MOLECULE
molecule
   46    47     1     0     0
SMALL
bcc


@<TRIPOS>ATOM
      1 C01          0.0000     0.0000     0.0000 c3         1 V4E      -0.032800
      2 C02          1.5070     0.0000     0.0000 cc         1 V4E      -0.073600
      3 C03          2.2300     0.0000     1.1250 cd         1 V4E      -0.083400
      4 C04          1.6850    -0.0000     2.5290 c3         1 V4E      -0.004100
      5 C05          1.5000    -1.4420     3.0060 c3         1 V4E       0.235400
      6 O06          0.9840    -1.4420     4.3370 os         1 V4E      -0.612200
      7 P07          0.6660    -2.7920     5.1550 p5         1 V4E       1.441800
      8 O08          1.8770    -3.6410     5.1930 o          1 V4E      -0.842500
      9 O09         -0.5280    -3.5910     4.4280 o          1 V4E      -0.842500
     10 O10          0.2250    -2.4180     6.6570 os         1 V4E      -0.726800
     11 P11          0.1750    -3.2340     8.0440 p5         1 V4E       1.554800
     12 O12         -1.0770    -4.2480     8.0260 o          1 V4E      -0.735000
     13 O13          1.4290    -4.0030     8.2100 o          1 V4E      -0.735000
     14 O14          0.0110    -2.2030     9.2690 os         1 V4E      -0.723800
     15 P15          0.2950    -2.2910    10.8520 p5         1 V4E       1.323900
     16 O16         -0.1230    -3.6180    11.3540 o          1 V4E      -0.674833
     17 O17          1.8680    -2.0840    11.1270 o          1 V4E      -0.674833
     18 O18         -0.5390    -1.1420    11.6110 o          1 V4E      -0.674833
     19 S19          3.9330    -0.0010     0.6730 ss         1 V4E      -0.169800
     20 C20          3.5040    -0.0010    -0.9820 cc         1 V4E      -0.344400
     21 N21          2.2190    -0.0060    -1.1080 na         1 V4E       0.048900
     22 C22          1.5820    -0.0130    -2.4260 c3         1 V4E       0.099600
     23 C23          1.2520     1.4000    -2.8320 ca         1 V4E      -0.411900
     24 C24          2.2060     2.2080    -3.4540 ca         1 V4E       0.699200
     25 N25          3.4780     1.7230    -3.7110 nv         1 V4E      -1.063500
     26 N26          1.8750     3.4490    -3.7960 nb         1 V4E      -0.773000
     27 C27          0.6650     3.9130    -3.5540 ca         1 V4E       0.626300
     28 C28          0.3280     5.3250    -3.9560 c3         1 V4E      -0.106400
     29 N29         -0.2580     3.1760    -2.9690 nb         1 V4E      -0.753000
     30 C30         -0.0040     1.9270    -2.6040 ca         1 V4E       0.451200
     31 H011        -0.3610    -0.3920     0.9430 hc         1 V4E       0.050700
     32 H012        -0.3610     1.0130    -0.1330 hc         1 V4E       0.050700
     33 H013        -0.3610    -0.6210    -0.8110 hc         1 V4E       0.050700
     34 H041         2.3780     0.5110     3.1850 hc         1 V4E       0.050700
     35 H042         0.7290     0.5100     2.5450 hc         1 V4E       0.050700
     36 H051         2.4560    -1.9530     2.9890 h1         1 V4E       0.025700
     37 H052         0.8060    -1.9530     2.3490 h1         1 V4E       0.025700
     38 H20          4.2080    -0.0030    -1.8050 h5         1 V4E       0.164000
     39 H221         0.6710    -0.5990    -2.3840 h1         1 V4E       0.052200
     40 H222         2.2580    -0.4490    -3.1520 h1         1 V4E       0.052200
     41 H30         -0.7700     1.3300    -2.1240 h4         1 V4E       0.025100
     42 H251         3.6110     1.0060    -4.3960 hn         1 V4E       0.428800
     43 H252         4.2690     2.1250    -3.2480 hn         1 V4E       0.428800
     44 H281         0.6120     5.4840    -4.9900 hc         1 V4E       0.040700
     45 H282         0.8680     6.0200    -3.3240 hc         1 V4E       0.040700
     46 H283        -0.7370     5.4890    -3.8450 hc         1 V4E       0.040700
@<TRIPOS>BOND
     1     1     2 1
     2     2     3 2
     3     2    21 1
     4     3     4 1
     5     3    19 1
     6     4     5 1
     7     5     6 1
     8     6     7 1
     9     7     8 1
    10     7     9 1
    11     7    10 1
    12    10    11 1
    13    11    12 1
    14    11    13 1
    15    11    14 1
    16    14    15 1
    17    15    16 1
    18    15    17 1
    19    15    18 1
    20    19    20 1
    21    20    21 2
    22    21    22 1
    23    22    23 1
    24    23    24 ar
    25    23    30 ar
    26    24    25 1
    27    24    26 ar
    28    26    27 ar
    29    27    28 1
    30    27    29 ar
    31    29    30 ar
    32     1    31 1
    33     1    32 1
    34     1    33 1
    35     4    34 1
    36     4    35 1
    37     5    36 1
    38     5    37 1
    39    20    38 1
    40    22    39 1
    41    22    40 1
    42    30    41 1
    43    25    42 1
    44    25    43 1
    45    28    44 1
    46    28    45 1
    47    28    46 1
@<TRIPOS>SUBSTRUCTURE
     1 V4E         1 TEMP              0 ****  ****    0 ROOT
