@<TRIPOS>MOLECULE
molecule
   46    48     1     0     0
SMALL
bcc


@<TRIPOS>ATOM
      1 C1           0.0000     0.0000     0.0000 c3         1 V4Z      -0.104100
      2 C2           1.5300     0.0000     0.0000 c3         1 V4Z       0.138100
      3 C3           2.0400     0.0000     1.4430 c3         1 V4Z      -0.104100
      4 O1           2.0060    -1.1660    -0.6750 os         1 V4Z      -0.418100
      5 C4           3.2010    -1.0630    -1.3160 cc         1 V4Z       0.584600
      6 C5           3.8390    -2.0850    -2.0310 cc         1 V4Z      -0.356300
      7 C6           5.0080    -1.5850    -2.5200 cd         1 V4Z       0.168300
      8 N1           5.9400    -2.2760    -3.2890 nu         1 V4Z      -0.742300
      9 C7           5.7170    -3.6040    -3.6240 ca         1 V4Z       0.780200
     10 N2           4.6150    -4.2250    -3.2160 nb         1 V4Z      -0.833000
     11 C8           4.3980    -5.4930    -3.5340 ca         1 V4Z       0.978900
     12 N3           3.2410    -6.1120    -3.0930 nu         1 V4Z      -0.877900
     13 C9           2.9820    -7.5120    -3.4350 c3         1 V4Z       0.209200
     14 C10          3.6800    -8.4210    -2.4200 c3         1 V4Z      -0.109100
     15 C11          1.4980    -7.7710    -3.4050 ca         1 V4Z       0.397600
     16 C12          0.9700    -8.8020    -4.1590 ca         1 V4Z      -0.216300
     17 C13         -0.3960    -9.0330    -4.1250 ca         1 V4Z      -0.128000
     18 C14         -1.1840    -8.2140    -3.3280 ca         1 V4Z       0.008600
     19 F1          -2.5210    -8.4030    -3.2630 f          1 V4Z      -0.131900
     20 C15         -0.5840    -7.2020    -2.6010 ca         1 V4Z       0.397200
     21 N4           0.7200    -7.0160    -2.6550 nb         1 V4Z      -0.673000
     22 N5           5.2610    -6.1840    -4.2640 nb         1 V4Z      -0.830000
     23 C16          6.3800    -5.6280    -4.7050 ca         1 V4Z       0.543200
     24 C17          6.6430    -4.3050    -4.3990 ca         1 V4Z      -0.348200
     25 Cl1          8.0940    -3.5360    -4.9620 cl         1 V4Z      -0.107400
     26 N6           5.0970    -0.2900    -2.1210 na         1 V4Z      -0.070600
     27 N7           3.9510     0.0120    -1.3750 nd         1 V4Z      -0.593800
     28 H11C        -0.3610     0.0420    -1.0200 hc         1 V4Z       0.045033
     29 H12C        -0.3610    -0.9050     0.4740 hc         1 V4Z       0.045033
     30 H13C        -0.3610     0.8630     0.5460 hc         1 V4Z       0.045033
     31 H2           1.8910     0.8850    -0.5100 h1         1 V4Z       0.062700
     32 H31C         1.5420     0.7830     2.0020 hc         1 V4Z       0.045033
     33 H32C         3.1090     0.1760     1.4480 hc         1 V4Z       0.045033
     34 H33C         1.8300    -0.9590     1.9000 hc         1 V4Z       0.045033
     35 H5           3.5020    -3.1110    -2.1130 ha         1 V4Z       0.207000
     36 H1           6.7730    -1.8160    -3.5990 hn         1 V4Z       0.466800
     37 H6           5.8470     0.3400    -2.3290 hn         1 V4Z       0.324700
     38 H3           2.5930    -5.6090    -2.5190 hn         1 V4Z       0.482800
     39 H9           3.3650    -7.7180    -4.4270 h1         1 V4Z       0.089700
     40 H101         3.6830    -7.9420    -1.4480 hc         1 V4Z       0.049367
     41 H102         4.7000    -8.6000    -2.7370 hc         1 V4Z       0.049367
     42 H103         3.1510    -9.3640    -2.3560 hc         1 V4Z       0.049367
     43 H12          1.6160    -9.4210    -4.7700 ha         1 V4Z       0.149000
     44 H13         -0.8380    -9.8340    -4.7060 ha         1 V4Z       0.156000
     45 H15         -1.1910    -6.5600    -1.9740 h4         1 V4Z       0.041100
     46 H16          7.0780    -6.2010    -5.3030 h4         1 V4Z       0.040100
@<TRIPOS>BOND
     1     1     2 1
     2     2     3 1
     3     2     4 1
     4     4     5 1
     5     5     6 1
     6     5    27 2
     7     6     7 2
     8     7     8 1
     9     7    26 1
    10     8     9 1
    11     9    10 ar
    12     9    24 ar
    13    10    11 ar
    14    11    12 1
    15    11    22 ar
    16    12    13 1
    17    13    14 1
    18    13    15 1
    19    15    16 ar
    20    15    21 ar
    21    16    17 ar
    22    17    18 ar
    23    18    19 1
    24    18    20 ar
    25    20    21 ar
    26    22    23 ar
    27    23    24 ar
    28    24    25 1
    29    26    27 1
    30     1    28 1
    31     1    29 1
    32     1    30 1
    33     2    31 1
    34     3    32 1
    35     3    33 1
    36     3    34 1
    37     6    35 1
    38     8    36 1
    39    26    37 1
    40    12    38 1
    41    13    39 1
    42    14    40 1
    43    14    41 1
    44    14    42 1
    45    16    43 1
    46    17    44 1
    47    20    45 1
    48    23    46 1
@<TRIPOS>SUBSTRUCTURE
     1 V4Z         1 TEMP              0 ****  ****    0 ROOT
