@<TRIPOS>MOLECULE
molecule
   33    34     1     0     0
SMALL
bcc


@<TRIPOS>ATOM
      1 F13          0.0000     0.0000     0.0000 f          1 V50      -0.087900
      2 C4           1.3510     0.0000     0.0000 ca         1 V50       0.180400
      3 C5           2.0420     0.0000     1.2000 ca         1 V50      -0.379500
      4 S7           1.1590     0.0010     2.7240 sy         1 V50       1.250200
      5 O9          -0.1230     0.5450     2.4440 o          1 V50      -0.490300
      6 N23          0.9130    -1.5800     3.1490 nz         1 V50      -0.810500
      7 O8           2.0400     0.5460     3.6970 o          1 V50      -0.490300
      8 C6           3.4270    -0.0010     1.2030 ca         1 V50       0.180400
      9 F11          4.0990    -0.0010     2.3760 f          1 V50      -0.087900
     10 C1           4.1240    -0.0020     0.0060 ca         1 V50       0.173400
     11 F10          5.4750     0.0030     0.0100 f          1 V50      -0.068900
     12 C3           2.0420    -0.0070    -1.2000 ca         1 V50       0.173400
     13 F12          1.3660    -0.0070    -2.3700 f          1 V50      -0.068900
     14 C2           3.4320    -0.0020    -1.1990 ca         1 V50       0.020900
     15 S14          4.3150    -0.0020    -2.7240 ss         1 V50      -0.097200
     16 C15          4.4680    -1.7380    -2.9890 ca         1 V50       0.768300
     17 N20          3.9480    -2.5760    -2.1020 nb         1 V50      -0.751500
     18 C19          4.0450    -3.8830    -2.2710 ca         1 V50       0.486600
     19 C21          3.4500    -4.8290    -1.2590 c3         1 V50      -0.145900
     20 C18          4.6990    -4.3750    -3.3900 ca         1 V50      -0.366600
     21 C17          5.2320    -3.4710    -4.2970 ca         1 V50       0.486600
     22 N16          5.0950    -2.1750    -4.0720 nb         1 V50      -0.751500
     23 C22          5.9520    -3.9590    -5.5260 c3         1 V50      -0.145900
     24 H1           1.7800    -1.9870     3.4380 hn         1 V50       0.496133
     25 H2           0.2550    -1.6250     3.9020 hn         1 V50       0.496133
     26 H3           3.7450    -5.8440    -1.4970 hc         1 V50       0.061867
     27 H4           3.8090    -4.5710    -0.2700 hc         1 V50       0.061867
     28 H5           2.3700    -4.7510    -1.2840 hc         1 V50       0.061867
     29 H6           4.7950    -5.4420    -3.5510 ha         1 V50       0.160000
     30 H7           6.8030    -4.5600    -5.2320 hc         1 V50       0.061867
     31 H8           6.2930    -3.1100    -6.1060 hc         1 V50       0.061867
     32 H9           5.2770    -4.5580    -6.1260 hc         1 V50       0.061867
     33 H233         0.5470    -2.0830     2.3640 hn         1 V50       0.496133
@<TRIPOS>BOND
     1    19    18 1
     2    18    17 ar
     3    18    20 ar
     4    17    16 ar
     5    20    21 ar
     6    15    16 1
     7    15    14 1
     8    16    22 ar
     9    11    10 1
    10    21    22 ar
    11    21    23 1
    12    10    14 ar
    13    10     8 ar
    14    14    12 ar
    15    13    12 1
    16    12     2 ar
    17     8     9 1
    18     8     3 ar
    19     2     3 ar
    20     2     1 1
    21     3     4 1
    22     6     4 1
    23     7     4 2
    24     4     5 2
    25     6    24 1
    26     6    25 1
    27    19    26 1
    28    19    27 1
    29    19    28 1
    30    20    29 1
    31    23    30 1
    32    23    31 1
    33    23    32 1
    34    33     6 1
@<TRIPOS>SUBSTRUCTURE
     1 V50         1 TEMP              0 ****  ****    0 ROOT
