@<TRIPOS>MOLECULE
V50
   33    34     1     0     0
SMALL
bcc


@<TRIPOS>ATOM
      1 F13          0.0000     0.0000     0.0000 f          1 V50      -0.083900
      2 C4           1.3510     0.0000     0.0000 ca         1 V50       0.182400
      3 C5           2.0420     0.0000     1.2000 ca         1 V50      -0.251500
      4 S7           1.1590     0.0010     2.7240 sy         1 V50       0.954200
      5 O9          -0.1230     0.5450     2.4440 o          1 V50      -0.469300
      6 N23          0.9130    -1.5800     3.1490 nz         1 V50      -0.133500
      7 O8           2.0400     0.5460     3.6970 o          1 V50      -0.469300
      8 C6           3.4270    -0.0010     1.2030 ca         1 V50       0.182400
      9 F11          4.0990    -0.0010     2.3760 f          1 V50      -0.083900
     10 C1           4.1240    -0.0020     0.0060 ca         1 V50       0.163900
     11 F10          5.4750     0.0030     0.0100 f          1 V50      -0.073400
     12 C3           2.0420    -0.0070    -1.2000 ca         1 V50       0.163900
     13 F12          1.3660    -0.0070    -2.3700 f          1 V50      -0.073400
     14 C2           3.4320    -0.0020    -1.1990 ca         1 V50       0.078900
     15 S14          4.3150    -0.0020    -2.7240 ss         1 V50      -0.261200
     16 C15          4.4680    -1.7380    -2.9890 ca         1 V50       0.745300
     17 N20          3.9480    -2.5760    -2.1020 nb         1 V50      -0.631500
     18 C19          4.0450    -3.8830    -2.2710 ca         1 V50       0.438600
     19 C21          3.4500    -4.8290    -1.2590 c3         1 V50      -0.040900
     20 C18          4.6990    -4.3750    -3.3900 ca         1 V50      -0.326600
     21 C17          5.2320    -3.4710    -4.2970 ca         1 V50       0.438600
     22 N16          5.0950    -2.1750    -4.0720 nb         1 V50      -0.631500
     23 C22          5.9520    -3.9590    -5.5260 c3         1 V50      -0.040900
     24 H1           1.7800    -1.9870     3.4380 hn         1 V50       0.317800
     25 H2           0.2550    -1.6250     3.9020 hn         1 V50       0.317800
     26 H3           3.7450    -5.8440    -1.4970 hc         1 V50       0.021700
     27 H4           3.8090    -4.5710    -0.2700 hc         1 V50       0.021700
     28 H5           2.3700    -4.7510    -1.2840 hc         1 V50       0.021700
     29 H6           4.7950    -5.4420    -3.5510 ha         1 V50       0.140000
     30 H7           6.8030    -4.5600    -5.2320 hc         1 V50       0.021700
     31 H8           6.2930    -3.1100    -6.1060 hc         1 V50       0.021700
     32 H9           5.2770    -4.5580    -6.1260 hc         1 V50       0.021700
     33 H233         0.5470    -2.0830     2.3640 hn         1 V50       0.317800
@<TRIPOS>BOND
     1     1     2 1   
     2     2     3 ar  
     3     2    12 ar  
     4     3     4 1   
     5     3     8 ar  
     6     4     5 2   
     7     4     6 1   
     8     4     7 2   
     9     6    24 1   
    10     6    25 1   
    11     6    33 1   
    12     8     9 1   
    13     8    10 ar  
    14    10    11 1   
    15    10    14 ar  
    16    12    13 1   
    17    12    14 ar  
    18    14    15 1   
    19    15    16 1   
    20    16    17 ar  
    21    16    22 ar  
    22    17    18 ar  
    23    18    19 1   
    24    18    20 ar  
    25    19    26 1   
    26    19    27 1   
    27    19    28 1   
    28    20    21 ar  
    29    20    29 1   
    30    21    22 ar  
    31    21    23 1   
    32    23    30 1   
    33    23    31 1   
    34    23    32 1   
@<TRIPOS>SUBSTRUCTURE
     1 V50         1 TEMP              0 ****  ****    0 ROOT
