@<TRIPOS>MOLECULE
molecule
   44    47     1     0     0
SMALL
bcc


@<TRIPOS>ATOM
      1 F14          0.0000     0.0000     0.0000 f          1 V51      -0.088400
      2 C4           1.3510     0.0000     0.0000 ca         1 V51       0.198400
      3 C5           2.0430     0.0000     1.1990 ca         1 V51      -0.415500
      4 S7           1.1600     0.0000     2.7240 sy         1 V51       1.250200
      5 O9          -0.1230     0.5440     2.4440 o          1 V51      -0.494800
      6 N10          0.9140    -1.5810     3.1490 nz         1 V51      -0.809500
      7 O8           2.0390     0.5450     3.6980 o          1 V51      -0.494800
      8 C6           3.4270     0.0000     1.2040 ca         1 V51       0.198400
      9 F12          4.1000    -0.0000     2.3750 f          1 V51      -0.088400
     10 C1           4.1240    -0.0010     0.0070 ca         1 V51       0.091400
     11 F11          5.4750     0.0050     0.0110 f          1 V51      -0.081400
     12 C3           2.0430    -0.0070    -1.2000 ca         1 V51       0.091400
     13 F13          1.3680    -0.0130    -2.3700 f          1 V51      -0.081400
     14 C2           3.4330    -0.0010    -1.1990 ca         1 V51       0.217600
     15 N25          4.1340    -0.0010    -2.4110 nu         1 V51      -0.802600
     16 C19          4.3900     1.3700    -2.8710 c3         1 V51       0.229200
     17 C18          5.1710     1.3290    -4.1860 c3         1 V51      -0.079733
     18 C20          5.2060     2.1190    -1.8170 c3         1 V51      -0.079733
     19 C24          3.0580     2.0900    -3.0910 c3         1 V51      -0.079733
     20 C23          3.3230     3.5190    -3.5710 c3         1 V51      -0.061700
     21 C21          4.1400     4.2680    -2.5160 c3         1 V51      -0.072400
     22 C15          5.4720     3.5480    -2.2960 c3         1 V51      -0.061700
     23 C22          4.1040     3.4780    -4.8860 c3         1 V51      -0.072400
     24 C17          5.4360     2.7580    -4.6670 c3         1 V51      -0.061700
     25 C16          6.2530     3.5060    -3.6110 c3         1 V51      -0.072400
     26 H1           1.7750    -2.0850     3.0730 hn         1 V51       0.495133
     27 H2           0.5830    -1.6250     4.0920 hn         1 V51       0.495133
     28 H3           3.9830    -0.7320    -3.0770 hn         1 V51       0.453800
     29 H4           4.5930     0.7980    -4.9330 hc         1 V51       0.047367
     30 H5           6.1140     0.8190    -4.0310 hc         1 V51       0.047367
     31 H6           4.6540     2.1480    -0.8850 hc         1 V51       0.047367
     32 H7           6.1490     1.6100    -1.6610 hc         1 V51       0.047367
     33 H8           2.5050     2.1190    -2.1600 hc         1 V51       0.047367
     34 H9           2.4800     1.5600    -3.8380 hc         1 V51       0.047367
     35 H10          2.3800     4.0290    -3.7270 hc         1 V51       0.063700
     36 H11          4.3290     5.2790    -2.8560 hc         1 V51       0.051200
     37 H12          3.5870     4.2980    -1.5850 hc         1 V51       0.051200
     38 H13          6.0500     4.0780    -1.5480 hc         1 V51       0.063700
     39 H14          4.2920     4.4890    -5.2270 hc         1 V51       0.051200
     40 H15          3.5260     2.9470    -5.6330 hc         1 V51       0.051200
     41 H16          5.9890     2.7290    -5.5980 hc         1 V51       0.063700
     42 H17          6.4420     4.5180    -3.9500 hc         1 V51       0.051200
     43 H18          7.1960     2.9960    -3.4550 hc         1 V51       0.051200
     44 H103         0.2410    -1.9910     2.5320 hn         1 V51       0.495133
@<TRIPOS>BOND
     1    21    22 1
     2    21    20 1
     3    18    22 1
     4    18    16 1
     5    22    25 1
     6    11    10 1
     7    19    20 1
     8    19    16 1
     9    15    16 1
    10    15    14 1
    11    20    23 1
    12    16    17 1
    13    25    24 1
    14    10    14 ar
    15    10     8 ar
    16    14    12 ar
    17    23    24 1
    18    17    24 1
    19     9     8 1
    20     8     3 ar
    21    12    13 1
    22    12     2 ar
    23     3     2 ar
    24     3     4 1
    25     2     1 1
    26     6     4 1
    27     4     7 2
    28     4     5 2
    29     6    26 1
    30     6    27 1
    31    15    28 1
    32    17    29 1
    33    17    30 1
    34    18    31 1
    35    18    32 1
    36    19    33 1
    37    19    34 1
    38    20    35 1
    39    21    36 1
    40    21    37 1
    41    22    38 1
    42    23    39 1
    43    23    40 1
    44    24    41 1
    45    25    42 1
    46    25    43 1
    47    44     6 1
@<TRIPOS>SUBSTRUCTURE
     1 V51         1 TEMP              0 ****  ****    0 ROOT
