@<TRIPOS>MOLECULE
molecule
   19    19     1     0     0
SMALL
bcc


@<TRIPOS>ATOM
      1 CAI          0.0000     0.0000     0.0000 ca         1 V55      -0.177600
      2 CAG          1.4000     0.0000     0.0000 ca         1 V55      -0.170000
      3 CAK          2.0860     0.0000     1.1980 ca         1 V55       0.103100
      4 CAJ          1.3850     0.0000     2.4040 ca         1 V55       0.112100
      5 CAF         -0.0040     0.0000     2.4050 ca         1 V55      -0.152000
      6 OAB         -1.9490     0.0060    -1.2690 o          1 V55      -0.523100
      7 CAE         -0.6960     0.0060     1.2140 ca         1 V55      -0.086000
      8 CAD         -0.7370     0.0020    -1.2710 c          1 V55       0.581500
      9 CAA          4.0320    -0.0030    -0.1020 c3         1 V55       0.117700
     10 OAH          3.4470    -0.0010     1.2020 os         1 V55      -0.301900
     11 OAC          2.0630    -0.0000     3.5810 oh         1 V55      -0.502100
     12 HAG          1.9440    -0.0020    -0.9370 ha         1 V55       0.143000
     13 HAD         -0.1970    -0.0020    -2.2100 h4         1 V55      -0.000800
     14 HAE         -1.7790     0.0060     1.2180 ha         1 V55       0.157000
     15 HAF         -0.5440     0.0020     3.3440 ha         1 V55       0.148000
     16 HAC          1.9720    -0.8420     3.9950 ho         1 V55       0.421000
     17 HAA1         3.7130    -0.8870    -0.6400 h1         1 V55       0.042700
     18 HAA2         5.1120    -0.0040    -0.0130 h1         1 V55       0.042700
     19 HAA3         3.7160     0.8820    -0.6410 h1         1 V55       0.042700
@<TRIPOS>BOND
     1     3     2 ar
     2     3     4 ar
     3     3    10 1
     4     2     1 ar
     5     1     8 1
     6     1     7 ar
     7     8     6 2
     8     5     4 ar
     9     5     7 ar
    10     4    11 1
    11     9    10 1
    12     2    12 1
    13     8    13 1
    14     7    14 1
    15     5    15 1
    16    11    16 1
    17     9    17 1
    18     9    18 1
    19     9    19 1
@<TRIPOS>SUBSTRUCTURE
     1 V55         1 TEMP              0 ****  ****    0 ROOT
