@<TRIPOS>MOLECULE
V55
   19    19     1     0     0
SMALL
bcc


@<TRIPOS>ATOM
      1 CAI        -0.0680   -0.0080   -0.0050 ca        1 V55     -0.201600
      2 CAG         1.3350   -0.0090   -0.0750 ca        1 V55     -0.137000
      3 CAK         2.0900   -0.0650    1.0940 ca        1 V55      0.087100
      4 CAJ         1.4320   -0.1210    2.3530 ca        1 V55      0.136100
      5 CAF         0.0360   -0.1200    2.4110 ca        1 V55     -0.209000
      6 OAB        -2.0830    0.0570   -1.2820 o         1 V55     -0.531100
      7 CAE        -0.7090   -0.0640    1.2340 ca        1 V55     -0.058000
      8 CAD        -0.8500    0.0510   -1.2490 c         1 V55      0.579500
      9 CAA         4.1420   -0.0130   -0.1030 c3        1 V55      0.109700
     10 OAH         3.4690   -0.0720    1.1500 os        1 V55     -0.302900
     11 OAC         2.2300   -0.1750    3.4670 oh        1 V55     -0.469100
     12 HAG         1.8290    0.0350   -1.0570 ha        1 V55      0.142000
     13 HAD        -0.2480    0.0920   -2.1850 h4        1 V55     -0.003800
     14 HAE        -1.8100   -0.0620    1.2720 ha        1 V55      0.158000
     15 HAF        -0.4720   -0.1640    3.3850 ha        1 V55      0.142000
     16 HAC         1.6520   -0.2100    4.2440 ho        1 V55      0.420000
     17 HAA1        5.2240   -0.0290    0.1870 h1        1 V55      0.045700
     18 HAA2        3.8930    0.9320   -0.6420 h1        1 V55      0.045700
     19 HAA3        3.8900   -0.9020   -0.7310 h1        1 V55      0.045700
@<TRIPOS>BOND
     1    1    2 ar  
     2    1    7 ar  
     3    1    8 1   
     4    2    3 ar  
     5    2   12 1   
     6    3    4 ar  
     7    3   10 1   
     8    4    5 ar  
     9    4   11 1   
    10    5    7 ar  
    11    5   15 1   
    12    6    8 2   
    13    7   14 1   
    14    8   13 1   
    15    9   10 1   
    16    9   17 1   
    17    9   18 1   
    18    9   19 1   
    19   11   16 1   
@<TRIPOS>SUBSTRUCTURE
     1 V55         1 TEMP              0 ****  ****    0 ROOT
