@<TRIPOS>MOLECULE
V56
   69    70     1     0     0
SMALL
bcc


@<TRIPOS>ATOM
      1 O01          0.0000     0.0000     0.0000 o          1 V56      -0.622000
      2 C02          1.2150     0.0000     0.0000 c          1 V56       0.699100
      3 N17         -4.5520     1.2920     0.7510 ns         1 V56      -0.209900
      4 C18         -4.3430     1.9930     2.0420 c3         1 V56       0.016000
      5 C19         -3.5380     1.0760     2.9660 c3         1 V56      -0.041400
      6 C20         -2.1750     1.7090     3.2510 c3         1 V56      -0.034400
      7 C21         -1.1180     0.6100     3.3740 c3         1 V56      -0.032400
      8 C22         -0.3070     0.5250     2.0810 c3         1 V56      -0.134400
      9 O25          1.8870     0.0000     1.1660 os         1 V56      -0.414900
     10 C26          1.0960    -0.0030     2.3840 c3         1 V56       0.276400
     11 C27          0.9990    -1.4090     2.9170 ca         1 V56      -0.108300
     12 C28          0.9370    -2.4770     2.0400 ca         1 V56      -0.081000
     13 C29          0.8480    -3.7680     2.5280 ca         1 V56      -0.089000
     14 C30          0.8220    -3.9910     3.8920 ca         1 V56      -0.100000
     15 C31          0.8860    -2.9230     4.7690 ca         1 V56      -0.033600
     16 Cl32         0.8540    -3.2030     6.4820 cl         1 V56      -0.032400
     17 C33          0.9800    -1.6320     4.2810 ca         1 V56      -0.092000
     18 N03          1.8890    -0.0070    -1.1670 ns         1 V56      -0.205900
     19 C04          1.4640     0.8650    -2.2640 c3         1 V56      -0.031300
     20 C09          0.0620     0.5010    -2.6810 c          1 V56       0.577100
     21 O24         -0.2790    -0.6610    -2.7450 o          1 V56      -0.611100
     22 C05          2.4120     0.6890    -3.4510 c3         1 V56      -0.027400
     23 C06          3.8170     1.1460    -3.0550 c3         1 V56      -0.062700
     24 C07          4.7940     0.8340    -4.1920 c3         1 V56       0.004400
     25 C08          3.8070     2.6520    -2.7900 c3         1 V56       0.004400
     26 N10         -0.8150     1.4990    -2.9860 ns         1 V56      -0.195900
     27 C11         -2.1710     1.0720    -3.3920 c3         1 V56      -0.010300
     28 C14         -3.1990     1.9600    -2.6870 c3         1 V56      -0.055400
     29 C15         -3.9550     1.1350    -1.6440 c3         1 V56      -0.108400
     30 C16         -3.8090     1.7810    -0.2900 c          1 V56       0.588100
     31 O23         -3.0520     2.7140    -0.1270 o          1 V56      -0.639100
     32 C12         -2.3220     1.2190    -4.9080 c3         1 V56       0.218400
     33 O13         -1.4410     0.3040    -5.5640 oh         1 V56      -0.579800
     34 H2          -5.3010     2.2170     2.4950 h1         1 V56       0.035200
     35 H3          -3.7960     2.9120     1.8730 h1         1 V56       0.035200
     36 H4          -3.3970     0.1150     2.4880 hc         1 V56       0.023200
     37 H5          -4.0750     0.9410     3.8970 hc         1 V56       0.023200
     38 H6          -2.2230     2.2680     4.1780 hc         1 V56       0.024200
     39 H7          -1.9100     2.3760     2.4400 hc         1 V56       0.024200
     40 H8          -1.6050    -0.3400     3.5550 hc         1 V56       0.013700
     41 H9          -0.4550     0.8380     4.2000 hc         1 V56       0.013700
     42 H10         -0.2330     1.5110     1.6370 hc         1 V56       0.081200
     43 H11         -0.8020    -0.1450     1.3890 hc         1 V56       0.081200
     44 H12          1.5690     0.6320     3.1230 h1         1 V56       0.037700
     45 H13          0.9570    -2.3030     0.9710 ha         1 V56       0.118000
     46 H14          0.7990    -4.6040     1.8420 ha         1 V56       0.107000
     47 H15          0.7530    -5.0020     4.2740 ha         1 V56       0.113000
     48 H16          1.0290    -0.7950     4.9670 ha         1 V56       0.118000
     49 H1          -5.4170     0.8220     0.5720 hn         1 V56       0.174500
     50 H17          2.6710    -0.6200    -1.2890 hn         1 V56       0.192500
     51 H18          1.4870     1.8970    -1.9340 h1         1 V56       0.035700
     52 H19          2.4390    -0.3550    -3.7390 hc         1 V56       0.037700
     53 H20          2.0600     1.2840    -4.2850 hc         1 V56       0.037700
     54 H21          4.1280     0.6230    -2.1590 hc         1 V56       0.027700
     55 H22          4.7620    -0.2260    -4.4150 hc         1 V56       0.005533
     56 H23          4.5140     1.3980    -5.0730 hc         1 V56       0.005533
     57 H24          5.7980     1.1090    -3.8910 hc         1 V56       0.005533
     58 H25          3.1170     3.1350    -3.4710 hc         1 V56       0.005533
     59 H26          3.4950     2.8370    -1.7690 hc         1 V56       0.005533
     60 H27          4.8030     3.0520    -2.9410 hc         1 V56       0.005533
     61 H28         -0.6660     2.4220    -2.6310 hn         1 V56       0.182500
     62 H29         -2.3280     0.0390    -3.1090 h1         1 V56       0.082700
     63 H32         -3.8990     2.3500    -3.4160 hc         1 V56       0.041200
     64 H33         -2.6910     2.7830    -2.1980 hc         1 V56       0.041200
     65 H34         -5.0040     1.0880    -1.9110 hc         1 V56       0.039700
     66 H35         -3.5460     0.1320    -1.6110 hc         1 V56       0.039700
     67 H30         -3.3450     1.0030    -5.1920 h1         1 V56      -0.012800
     68 H31         -2.0720     2.2320    -5.1990 h1         1 V56      -0.012800
     69 H36         -1.6940     0.2180    -6.4680 ho         1 V56       0.385000
@<TRIPOS>BOND
     1     1     2 2   
     2     2     9 1   
     3     2    18 1   
     4     3     4 1   
     5     3    30 1   
     6     3    49 1   
     7     4     5 1   
     8     4    34 1   
     9     4    35 1   
    10     5     6 1   
    11     5    36 1   
    12     5    37 1   
    13     6     7 1   
    14     6    38 1   
    15     6    39 1   
    16     7     8 1   
    17     7    40 1   
    18     7    41 1   
    19     8    10 1   
    20     8    42 1   
    21     8    43 1   
    22     9    10 1   
    23    10    11 1   
    24    10    44 1   
    25    11    12 ar  
    26    11    17 ar  
    27    12    13 ar  
    28    12    45 1   
    29    13    14 ar  
    30    13    46 1   
    31    14    15 ar  
    32    14    47 1   
    33    15    16 1   
    34    15    17 ar  
    35    17    48 1   
    36    18    19 1   
    37    18    50 1   
    38    19    20 1   
    39    19    22 1   
    40    19    51 1   
    41    20    21 2   
    42    20    26 1   
    43    22    23 1   
    44    22    52 1   
    45    22    53 1   
    46    23    24 1   
    47    23    25 1   
    48    23    54 1   
    49    24    55 1   
    50    24    56 1   
    51    24    57 1   
    52    25    58 1   
    53    25    59 1   
    54    25    60 1   
    55    26    27 1   
    56    26    61 1   
    57    27    28 1   
    58    27    32 1   
    59    27    62 1   
    60    28    29 1   
    61    28    63 1   
    62    28    64 1   
    63    29    30 1   
    64    29    65 1   
    65    29    66 1   
    66    30    31 2   
    67    32    33 1   
    68    32    67 1   
    69    32    68 1   
    70    33    69 1   
@<TRIPOS>SUBSTRUCTURE
     1 V56         1 TEMP              0 ****  ****    0 ROOT
