@<TRIPOS>MOLECULE
molecule
   69    70     1     0     0
SMALL
bcc


@<TRIPOS>ATOM
      1 O01          0.0000     0.0000     0.0000 o          1 V56      -0.576000
      2 C02          1.2150     0.0000     0.0000 c          1 V56       0.758100
      3 N17         -4.5520     1.2920     0.7510 ns         1 V56      -0.578900
      4 C18         -4.3430     1.9930     2.0420 c3         1 V56       0.081000
      5 C19         -3.5380     1.0760     2.9660 c3         1 V56      -0.093400
      6 C20         -2.1750     1.7090     3.2510 c3         1 V56      -0.081400
      7 C21         -1.1180     0.6100     3.3740 c3         1 V56      -0.088400
      8 C22         -0.3070     0.5250     2.0810 c3         1 V56      -0.124400
      9 O25          1.8870     0.0000     1.1660 os         1 V56      -0.428900
     10 C26          1.0960    -0.0030     2.3840 c3         1 V56       0.217400
     11 C27          0.9990    -1.4090     2.9170 ca         1 V56      -0.095300
     12 C28          0.9370    -2.4770     2.0400 ca         1 V56      -0.105000
     13 C29          0.8480    -3.7680     2.5280 ca         1 V56      -0.118000
     14 C30          0.8220    -3.9910     3.8920 ca         1 V56      -0.122000
     15 C31          0.8860    -2.9230     4.7690 ca         1 V56       0.028400
     16 Cl32         0.8540    -3.2030     6.4820 cl         1 V56      -0.113400
     17 C33          0.9800    -1.6320     4.2810 ca         1 V56      -0.114000
     18 N03          1.8890    -0.0070    -1.1670 ns         1 V56      -0.589900
     19 C04          1.4640     0.8650    -2.2640 c3         1 V56       0.071700
     20 C09          0.0620     0.5010    -2.6810 c          1 V56       0.654100
     21 O24         -0.2790    -0.6610    -2.7450 o          1 V56      -0.573100
     22 C05          2.4120     0.6890    -3.4510 c3         1 V56      -0.080400
     23 C06          3.8170     1.1460    -3.0550 c3         1 V56      -0.081700
     24 C07          4.7940     0.8340    -4.1920 c3         1 V56      -0.090100
     25 C08          3.8070     2.6520    -2.7900 c3         1 V56      -0.090100
     26 N10         -0.8150     1.4990    -2.9860 ns         1 V56      -0.571900
     27 C11         -2.1710     1.0720    -3.3920 c3         1 V56       0.103700
     28 C14         -3.1990     1.9600    -2.6870 c3         1 V56      -0.099400
     29 C15         -3.9550     1.1350    -1.6440 c3         1 V56      -0.161400
     30 C16         -3.8090     1.7810    -0.2900 c          1 V56       0.660100
     31 O23         -3.0520     2.7140    -0.1270 o          1 V56      -0.608100
     32 C12         -2.3220     1.2190    -4.9080 c3         1 V56       0.134400
     33 O13         -1.4410     0.3040    -5.5640 oh         1 V56      -0.595800
     34 H2          -5.3010     2.2170     2.4950 h1         1 V56       0.058200
     35 H3          -3.7960     2.9120     1.8730 h1         1 V56       0.058200
     36 H4          -3.3970     0.1150     2.4880 hc         1 V56       0.050700
     37 H5          -4.0750     0.9410     3.8970 hc         1 V56       0.050700
     38 H6          -2.2230     2.2680     4.1780 hc         1 V56       0.047700
     39 H7          -1.9100     2.3760     2.4400 hc         1 V56       0.047700
     40 H8          -1.6050    -0.3400     3.5550 hc         1 V56       0.037700
     41 H9          -0.4550     0.8380     4.2000 hc         1 V56       0.037700
     42 H10         -0.2330     1.5110     1.6370 hc         1 V56       0.095200
     43 H11         -0.8020    -0.1450     1.3890 hc         1 V56       0.095200
     44 H12          1.5690     0.6320     3.1230 h1         1 V56       0.081700
     45 H13          0.9570    -2.3030     0.9710 ha         1 V56       0.145000
     46 H14          0.7990    -4.6040     1.8420 ha         1 V56       0.139000
     47 H15          0.7530    -5.0020     4.2740 ha         1 V56       0.143000
     48 H16          1.0290    -0.7950     4.9670 ha         1 V56       0.143000
     49 H1          -5.4170     0.8220     0.5720 hn         1 V56       0.312500
     50 H17          2.6710    -0.6200    -1.2890 hn         1 V56       0.336500
     51 H18          1.4870     1.8970    -1.9340 h1         1 V56       0.057700
     52 H19          2.4390    -0.3550    -3.7390 hc         1 V56       0.067700
     53 H20          2.0600     1.2840    -4.2850 hc         1 V56       0.067700
     54 H21          4.1280     0.6230    -2.1590 hc         1 V56       0.051700
     55 H22          4.7620    -0.2260    -4.4150 hc         1 V56       0.036367
     56 H23          4.5140     1.3980    -5.0730 hc         1 V56       0.036367
     57 H24          5.7980     1.1090    -3.8910 hc         1 V56       0.036367
     58 H25          3.1170     3.1350    -3.4710 hc         1 V56       0.036367
     59 H26          3.4950     2.8370    -1.7690 hc         1 V56       0.036367
     60 H27          4.8030     3.0520    -2.9410 hc         1 V56       0.036367
     61 H28         -0.6660     2.4220    -2.6310 hn         1 V56       0.316500
     62 H29         -2.3280     0.0390    -3.1090 h1         1 V56       0.101700
     63 H32         -3.8990     2.3500    -3.4160 hc         1 V56       0.065700
     64 H33         -2.6910     2.7830    -2.1980 hc         1 V56       0.065700
     65 H34         -5.0040     1.0880    -1.9110 hc         1 V56       0.070200
     66 H35         -3.5460     0.1320    -1.6110 hc         1 V56       0.070200
     67 H30         -3.3450     1.0030    -5.1920 h1         1 V56       0.021700
     68 H31         -2.0720     2.2320    -5.1990 h1         1 V56       0.021700
     69 H36         -1.6940     0.2180    -6.4680 ho         1 V56       0.397000
@<TRIPOS>BOND
     1    33    32 1
     2    32    27 1
     3    31    30 2
     4    27    28 1
     5    27    26 1
     6    28    29 1
     7    30    29 1
     8    30     3 1
     9     4     3 1
    10     4     5 1
    11    26    20 1
    12    21    20 2
    13     5     6 1
    14    20    19 1
    15    22    19 1
    16    22    23 1
    17    19    18 1
    18     6     7 1
    19    24    23 1
    20     7     8 1
    21    18     2 1
    22    23    25 1
    23     1     2 2
    24     2     9 1
    25     9    10 1
    26     8    10 1
    27    10    11 1
    28    11    17 ar
    29    11    12 ar
    30    17    15 ar
    31    12    13 ar
    32    15    16 1
    33    15    14 ar
    34    13    14 ar
    35     3    49 1
    36     4    34 1
    37     4    35 1
    38     5    36 1
    39     5    37 1
    40     6    38 1
    41     6    39 1
    42     7    40 1
    43     7    41 1
    44     8    42 1
    45     8    43 1
    46    10    44 1
    47    12    45 1
    48    13    46 1
    49    14    47 1
    50    17    48 1
    51    18    50 1
    52    19    51 1
    53    22    52 1
    54    22    53 1
    55    23    54 1
    56    24    55 1
    57    24    56 1
    58    24    57 1
    59    25    58 1
    60    25    59 1
    61    25    60 1
    62    26    61 1
    63    27    62 1
    64    32    67 1
    65    32    68 1
    66    28    63 1
    67    28    64 1
    68    29    65 1
    69    29    66 1
    70    33    69 1
@<TRIPOS>SUBSTRUCTURE
     1 V56         1 TEMP              0 ****  ****    0 ROOT
