@<TRIPOS>MOLECULE
molecule
   87    91     1     0     0
SMALL
bcc


@<TRIPOS>ATOM
      1 CBI          0.0000     0.0000     0.0000 c3         1 V5X      -0.034900
      2 CBJ          1.5070     0.0000     0.0000 cc         1 V5X      -0.022300
      3 NBQ          2.2930     0.0000     1.1200 na         1 V5X      -0.177400
      4 CBR          3.6230     0.0000     0.7580 ca         1 V5X      -0.065200
      5 CBS          4.8100    -0.0000     1.4830 ca         1 V5X      -0.106000
      6 CBT          6.0200    -0.0010     0.8250 ca         1 V5X      -0.195000
      7 CBN          6.0690    -0.0000    -0.5670 ca         1 V5X       0.111100
      8 OBO          7.2720    -0.0010    -1.2020 os         1 V5X      -0.332900
      9 CBP          8.4400    -0.0020    -0.3780 c3         1 V5X       0.131700
     10 CBM          4.9020    -0.0010    -1.3050 ca         1 V5X      -0.118000
     11 CBL          3.6710     0.0000    -0.6480 ca         1 V5X      -0.045800
     12 CBK          2.2770    -0.0050    -1.1000 cd         1 V5X      -0.151400
     13 CBH          1.7990    -0.0130    -2.5290 c3         1 V5X      -0.069200
     14 CBF          1.6400     1.4060    -3.0130 c          1 V5X       0.653100
     15 OBG          1.8900     2.3320    -2.2700 o          1 V5X      -0.601100
     16 N            1.2200     1.6460    -4.2700 ns         1 V5X      -0.575900
     17 CA           1.0650     3.0240    -4.7410 c3         1 V5X       0.043700
     18 CB          -0.3140     3.5490    -4.3360 c3         1 V5X      -0.092400
     19 CAV         -0.4020     3.6300    -2.8110 c3         1 V5X      -0.076400
     20 CAW         -1.7810     4.1550    -2.4060 c3         1 V5X      -0.088400
     21 CAX         -1.8690     4.2360    -0.8810 c3         1 V5X      -0.062400
     22 CAY         -3.2480     4.7610    -0.4760 c3         1 V5X      -0.149400
     23 CAZ         -3.3330     4.8400     1.0260 c          1 V5X       0.667100
     24 OBE         -2.3850     4.5090     1.7070 o          1 V5X      -0.572100
     25 NBA         -4.4640     5.2790     1.6140 ns         1 V5X      -0.477400
     26 OBB         -4.5450     5.3530     3.0250 oh         1 V5X      -0.364100
     27 C            1.1960     3.0610    -6.2420 c          1 V5X       0.651100
     28 O            1.3980     2.0360    -6.8580 o          1 V5X      -0.611100
     29 NAR          1.0870     4.2320    -6.9000 ns         1 V5X      -0.584900
     30 CAQ          1.2150     4.2680    -8.3580 c3         1 V5X       0.113000
     31 CAP          1.0530     5.7070    -8.8490 c3         1 V5X      -0.023200
     32 CAL          1.1840     5.7440   -10.3500 cc         1 V5X      -0.142400
     33 CAM          0.1010     5.6000   -11.3220 ca         1 V5X      -0.096800
     34 CAN         -1.2780     5.4010   -11.2120 ca         1 V5X      -0.080000
     35 CAO         -2.0410     5.3060   -12.3410 ca         1 V5X      -0.155000
     36 CAK         -1.4590     5.4040   -13.5970 ca         1 V5X      -0.107000
     37 CAJ         -0.1010     5.5990   -13.7290 ca         1 V5X      -0.143000
     38 CAI          0.6960     5.7000   -12.5940 ca         1 V5X      -0.033200
     39 NAH          2.0470     5.8920   -12.4030 na         1 V5X      -0.174400
     40 CAG          2.3270     5.9230   -11.0570 cd         1 V5X       0.011700
     41 CAF          3.6710     6.1170   -10.4700 ca         1 V5X      -0.042800
     42 CAE          4.7670     5.4230   -10.9840 ca         1 V5X      -0.114000
     43 CAD          6.0180     5.6090   -10.4330 ca         1 V5X      -0.126000
     44 CAA          6.1870     6.4800    -9.3710 ca         1 V5X      -0.119000
     45 CAB          5.1040     7.1710    -8.8570 ca         1 V5X      -0.126000
     46 CAC          3.8490     6.9990    -9.4030 ca         1 V5X      -0.114000
     47 HBI1        -0.3610     1.0140    -0.1260 hc         1 V5X       0.050700
     48 HBI2        -0.3610    -0.6160    -0.8150 hc         1 V5X       0.050700
     49 HBI3        -0.3610    -0.3980     0.9410 hc         1 V5X       0.050700
     50 HBQ          1.9540    -0.0000     2.0610 hn         1 V5X       0.296700
     51 HBS          4.7830    -0.0010     2.5660 ha         1 V5X       0.125000
     52 HBT          6.9410    -0.0030     1.3950 ha         1 V5X       0.133000
     53 HBM          4.9420    -0.0000    -2.3870 ha         1 V5X       0.143000
     54 HBP1         9.3240    -0.0020    -1.0040 h1         1 V5X       0.037367
     55 HBP2         8.4400    -0.8870     0.2470 h1         1 V5X       0.037367
     56 HBP3         8.4410     0.8820     0.2480 h1         1 V5X       0.037367
     57 HBH1         2.5230    -0.5270    -3.1490 hc         1 V5X       0.064700
     58 HBH2         0.8450    -0.5230    -2.5880 hc         1 V5X       0.064700
     59 H            1.0280     0.8820    -4.8880 hn         1 V5X       0.334500
     60 HA           1.8330     3.6460    -4.2970 h1         1 V5X       0.095700
     61 HBC1        -1.0790     2.8780    -4.7070 hc         1 V5X       0.044700
     62 HBC2        -0.4630     4.5350    -4.7590 hc         1 V5X       0.044700
     63 HAV1        -0.2530     2.6430    -2.3890 hc         1 V5X       0.063200
     64 HAV2         0.3630     4.3010    -2.4400 hc         1 V5X       0.063200
     65 HAW1        -2.5460     3.4850    -2.7770 hc         1 V5X       0.034200
     66 HAW2        -1.9290     5.1420    -2.8290 hc         1 V5X       0.034200
     67 HAX1        -1.7200     3.2500    -0.4590 hc         1 V5X       0.063200
     68 HAX2        -1.1040     4.9070    -0.5100 hc         1 V5X       0.063200
     69 HAY1        -3.3970     5.7470    -0.8990 hc         1 V5X       0.058200
     70 HAY2        -4.0130     4.0890    -0.8470 hc         1 V5X       0.058200
     71 HBA         -5.2470     5.5510     1.0530 hn         1 V5X       0.316500
     72 HBB         -5.3800     5.7160     3.2740 ho         1 V5X       0.397000
     73 HAR          0.9480     5.0820    -6.3890 hn         1 V5X       0.313500
     74 HAQ1         0.4480     3.6460    -8.8040 h1         1 V5X       0.061200
     75 HAQ2         2.1920     3.8970    -8.6450 h1         1 V5X       0.061200
     76 HAP1         0.0760     6.0790    -8.5630 hc         1 V5X       0.050200
     77 HAP2         1.8200     6.3290    -8.4040 hc         1 V5X       0.050200
     78 HAN         -1.7400     5.3240   -10.2350 ha         1 V5X       0.129000
     79 HAO         -3.1100     5.1520   -12.2550 ha         1 V5X       0.129000
     80 HAK         -2.0780     5.3260   -14.4830 ha         1 V5X       0.131000
     81 HAJ          0.3430     5.6750   -14.7140 ha         1 V5X       0.126000
     82 HAH          2.7220     6.0000   -13.1340 hn         1 V5X       0.299700
     83 HAE          4.6360     4.7410   -11.8150 ha         1 V5X       0.136500
     84 HAC          3.0020     7.5400    -8.9990 ha         1 V5X       0.136500
     85 HAD          6.8700     5.0710   -10.8310 ha         1 V5X       0.134000
     86 HAA          7.1710     6.6210    -8.9400 ha         1 V5X       0.133000
     87 HAB          5.2430     7.8530    -8.0270 ha         1 V5X       0.134000
@<TRIPOS>BOND
     1     1     2 1
     2     1    47 1
     3     1    48 1
     4     1    49 1
     5     2     3 1
     6     2    12 2
     7     3     4 1
     8     3    50 1
     9     4     5 ar
    10     4    11 ar
    11     5     6 ar
    12     5    51 1
    13     6     7 ar
    14     6    52 1
    15     7     8 1
    16     7    10 ar
    17     8     9 1
    18     9    54 1
    19     9    55 1
    20     9    56 1
    21    10    11 ar
    22    10    53 1
    23    11    12 1
    24    12    13 1
    25    13    14 1
    26    13    57 1
    27    13    58 1
    28    14    15 2
    29    14    16 1
    30    16    17 1
    31    16    59 1
    32    17    18 1
    33    17    27 1
    34    17    60 1
    35    18    19 1
    36    18    61 1
    37    18    62 1
    38    19    20 1
    39    19    63 1
    40    19    64 1
    41    20    21 1
    42    20    65 1
    43    20    66 1
    44    21    22 1
    45    21    67 1
    46    21    68 1
    47    22    23 1
    48    22    69 1
    49    22    70 1
    50    23    24 2
    51    23    25 1
    52    25    26 1
    53    25    71 1
    54    26    72 1
    55    27    28 2
    56    27    29 1
    57    29    30 1
    58    29    73 1
    59    30    31 1
    60    30    74 1
    61    30    75 1
    62    31    32 1
    63    31    76 1
    64    31    77 1
    65    32    33 1
    66    32    40 2
    67    33    34 ar
    68    33    38 ar
    69    34    35 ar
    70    34    78 1
    71    35    36 ar
    72    35    79 1
    73    36    37 ar
    74    36    80 1
    75    37    38 ar
    76    37    81 1
    77    38    39 1
    78    39    40 1
    79    39    82 1
    80    40    41 1
    81    41    42 ar
    82    41    46 ar
    83    42    43 ar
    84    42    83 1
    85    43    44 ar
    86    43    85 1
    87    44    45 ar
    88    44    86 1
    89    45    46 ar
    90    45    87 1
    91    46    84 1
@<TRIPOS>SUBSTRUCTURE
     1 V5X         1 TEMP              0 ****  ****    0 ROOT
