@<TRIPOS>MOLECULE
V63
   34    36     1     0     0
SMALL
bcc


@<TRIPOS>ATOM
      1 C3           0.0000     0.0000     0.0000 ca         1 V63      -0.048000
      2 C11          1.3930    -0.0110     2.4000 ca         1 V63      -0.118000
      3 C1           0.0130    -0.0050     2.4150 ca         1 V63      -0.048000
      4 C13         -3.0000    -1.8050     3.9630 c3         1 V63      -0.077400
      5 C10         -4.8530     0.7370     3.5490 c3         1 V63      -0.032400
      6 C7           2.0750     0.0000     1.1960 ca         1 V63      -0.068000
      7 C8          -4.8030    -1.4270     2.2860 c3         1 V63      -0.032400
      8 C6          -4.4790    -2.1040     3.6270 c3         1 V63       0.125500
      9 C2           1.3790     0.0000     0.0000 ca         1 V63      -0.118000
     10 C4          -4.5250    -0.0860     4.8050 c3         1 V63       0.125500
     11 C14         -0.6950     0.0010     1.2110 ca         1 V63      -0.153600
     12 C80         -4.2890     0.0150     2.3220 c3         1 V63       0.187100
     13 O15         -2.7850     0.0120     0.1710 o          1 V63      -0.586000
     14 N           -5.2460    -1.3850     4.6800 n7         1 V63      -0.580200
     15 O17         -2.8390     0.0080     2.3900 os         1 V63      -0.394900
     16 H1          -0.5200    -0.0090     3.3580 ha         1 V63       0.122500
     17 H11          1.9430    -0.0130     3.3330 ha         1 V63       0.107500
     18 H2           1.9190     0.0040    -0.9390 ha         1 V63       0.107500
     19 H3          -0.5430     0.0020    -0.9370 ha         1 V63       0.122500
     20 H7           3.1580    -0.0020     1.1900 ha         1 V63       0.103000
     21 H4          -4.7760     0.4370     5.7200 h1         1 V63       0.037700
     22 H101        -4.4040     1.7190     3.6310 hc         1 V63       0.031200
     23 H102        -5.9270     0.8370     3.4510 hc         1 V63       0.031200
     24 H           -5.1800    -1.8880     5.5430 hn         1 V63       0.254800
     25 H6          -4.6920    -3.1660     3.6160 h1         1 V63       0.037700
     26 H81C        -4.3180    -1.9650     1.4800 hc         1 V63       0.031200
     27 H82C        -5.8750    -1.4270     2.1290 hc         1 V63       0.031200
     28 H131        -2.4220    -1.6980     3.0540 hc         1 V63       0.033450
     29 H132        -2.5880    -2.5930     4.5820 hc         1 V63       0.033450
     30 H80         -4.6050     0.5320     1.4240 h1         1 V63       0.040700
     31 C5          -2.1720     0.0080     1.2190 c          1 V63       0.705700
     32 C12         -3.0300    -0.4730     4.7400 c3         1 V63      -0.077400
     33 H121        -2.6320    -0.6100     5.7380 hc         1 V63       0.033450
     34 H122        -2.4670     0.2860     4.2090 hc         1 V63       0.033450
@<TRIPOS>BOND
     1     1     9 ar  
     2     1    11 ar  
     3     1    19 1   
     4     2     3 ar  
     5     2     6 ar  
     6     2    17 1   
     7     3    11 ar  
     8     3    16 1   
     9     4     8 1   
    10     4    28 1   
    11     4    29 1   
    12     4    32 1   
    13     5    10 1   
    14     5    12 1   
    15     5    22 1   
    16     5    23 1   
    17     6     9 ar  
    18     6    20 1   
    19     7     8 1   
    20     7    12 1   
    21     7    26 1   
    22     7    27 1   
    23     8    14 1   
    24     8    25 1   
    25     9    18 1   
    26    10    14 1   
    27    10    21 1   
    28    10    32 1   
    29    11    31 1   
    30    12    15 1   
    31    12    30 1   
    32    13    31 2   
    33    14    24 1   
    34    15    31 1   
    35    32    33 1   
    36    32    34 1   
@<TRIPOS>SUBSTRUCTURE
     1 V63         1 TEMP              0 ****  ****    0 ROOT
