@<TRIPOS>MOLECULE
V65
   58    61     1     0     0
SMALL
bcc


@<TRIPOS>ATOM
      1 C1           0.0000     0.0000     0.0000 c          1 V65       0.242600
      2 N2           1.3480     0.0000     0.0000 nz         1 V65       0.212600
      3 C4          -0.7440     0.0000     1.2890 ca         1 V65       0.589500
      4 N5          -2.0720    -0.0010     1.2880 nb         1 V65      -0.652000
      5 C6          -2.7380    -0.0000     2.4400 ca         1 V65       0.773900
      6 N10         -4.1180    -0.0010     2.4400 nh         1 V65      -0.347300
      7 C14         -4.8490    -0.0020     1.1710 c3         1 V65       0.134500
      8 C15         -4.4780    -1.2500     0.3690 c3         1 V65      -0.058900
      9 C16         -5.2440    -1.2510    -0.9570 c3         1 V65      -0.013900
     10 C17         -4.8750    -0.0020    -1.7590 c3         1 V65      -0.028400
     11 C18         -5.2440     1.2470    -0.9570 c3         1 V65      -0.013900
     12 C19         -4.4800     1.2470     0.3690 c3         1 V65      -0.058900
     13 C12         -4.8510    -0.0020     3.7080 c3         1 V65       0.215100
     14 C22         -5.1030     1.4190     4.1430 ca         1 V65      -0.148300
     15 C23         -6.2550     2.0700     3.7430 ca         1 V65      -0.075500
     16 C24         -6.4860     3.3730     4.1420 ca         1 V65      -0.096500
     17 C25         -5.5650     4.0260     4.9410 ca         1 V65      -0.025600
     18 Cl          -5.8550     5.6620     5.4430 cl         1 V65       0.002600
     19 C26         -4.4120     3.3740     5.3420 ca         1 V65      -0.096500
     20 C27         -4.1840     2.0690     4.9460 ca         1 V65      -0.075500
     21 N7          -2.0730    -0.0010     3.5910 nb         1 V65      -0.724000
     22 C8          -0.7450    -0.0010     3.5910 ca         1 V65       0.807900
     23 N29         -0.0540    -0.0020     4.7860 nh         1 V65      -0.415300
     24 C30          1.3980    -0.0010     4.5550 c3         1 V65       0.099800
     25 C31          2.1220     0.0590     5.9020 c3         1 V65       0.212900
     26 O32          1.7040    -1.0420     6.7130 os         1 V65      -0.397600
     27 C33          0.2950    -1.0730     6.9590 c3         1 V65       0.212900
     28 C34         -0.4490    -1.1440     5.6220 c3         1 V65       0.099800
     29 N9          -0.0800    -0.0060     2.4380 nb         1 V65      -0.832000
     30 OXT         -0.6070     0.0050    -1.0510 o          1 V65      -0.379100
     31 H21N         1.6810    -0.0010    -0.9440 hn         1 V65       0.248800
     32 H22N         1.6820    -0.8170     0.4730 hn         1 V65       0.248800
     33 H14         -5.9150    -0.0020     1.3630 h1         1 V65       0.056700
     34 H121        -4.2650    -0.5120     4.4630 h1         1 V65       0.047700
     35 H122        -5.7970    -0.5130     3.5780 h1         1 V65       0.047700
     36 H151        -3.4140    -1.2470     0.1690 hc         1 V65       0.030450
     37 H152        -4.7420    -2.1340     0.9370 hc         1 V65       0.030450
     38 H191        -4.7450     2.1310     0.9360 hc         1 V65       0.030450
     39 H192        -3.4150     1.2450     0.1700 hc         1 V65       0.030450
     40 H161        -6.3090    -1.2490    -0.7580 hc         1 V65       0.020700
     41 H162        -4.9790    -2.1350    -1.5250 hc         1 V65       0.020700
     42 H171        -5.4190    -0.0020    -2.6960 hc         1 V65       0.019200
     43 H172        -3.8090    -0.0020    -1.9550 hc         1 V65       0.019200
     44 H181        -4.9800     2.1310    -1.5240 hc         1 V65       0.020700
     45 H182        -6.3090     1.2440    -0.7580 hc         1 V65       0.020700
     46 H23         -6.9760     1.5590     3.1180 ha         1 V65       0.114500
     47 H27         -3.2810     1.5580     5.2590 ha         1 V65       0.114500
     48 H24         -7.3890     3.8830     3.8290 ha         1 V65       0.121500
     49 H26         -3.6910     3.8840     5.9690 ha         1 V65       0.121500
     50 H301         1.6680     0.8640     3.9610 h1         1 V65       0.029700
     51 H302         1.6810    -0.9070     4.0330 h1         1 V65       0.029700
     52 H341        -1.5170    -1.1080     5.8020 h1         1 V65       0.029700
     53 H342        -0.1930    -2.0670     5.1160 h1         1 V65       0.029700
     54 H311         3.1920     0.0010     5.7390 h1         1 V65       0.025200
     55 H312         1.8770     0.9890     6.4020 h1         1 V65       0.025200
     56 H331         0.0010    -0.1740     7.4870 h1         1 V65       0.025200
     57 H332         0.0520    -1.9450     7.5540 h1         1 V65       0.025200
     58 H231         1.6820     0.8130     0.4780 hn         1 V65       0.248800
@<TRIPOS>BOND
     1     1     2 1   
     2     1     3 1   
     3     1    30 2   
     4     2    31 1   
     5     2    32 1   
     6     2    58 1   
     7     3     4 ar  
     8     3    29 ar  
     9     4     5 ar  
    10     5     6 1   
    11     5    21 ar  
    12     6     7 1   
    13     6    13 1   
    14     7     8 1   
    15     7    12 1   
    16     7    33 1   
    17     8     9 1   
    18     8    36 1   
    19     8    37 1   
    20     9    10 1   
    21     9    40 1   
    22     9    41 1   
    23    10    11 1   
    24    10    42 1   
    25    10    43 1   
    26    11    12 1   
    27    11    44 1   
    28    11    45 1   
    29    12    38 1   
    30    12    39 1   
    31    13    14 1   
    32    13    34 1   
    33    13    35 1   
    34    14    15 ar  
    35    14    20 ar  
    36    15    16 ar  
    37    15    46 1   
    38    16    17 ar  
    39    16    48 1   
    40    17    18 1   
    41    17    19 ar  
    42    19    20 ar  
    43    19    49 1   
    44    20    47 1   
    45    21    22 ar  
    46    22    23 1   
    47    22    29 ar  
    48    23    24 1   
    49    23    28 1   
    50    24    25 1   
    51    24    50 1   
    52    24    51 1   
    53    25    26 1   
    54    25    54 1   
    55    25    55 1   
    56    26    27 1   
    57    27    28 1   
    58    27    56 1   
    59    27    57 1   
    60    28    52 1   
    61    28    53 1   
@<TRIPOS>SUBSTRUCTURE
     1 V65         1 TEMP              0 ****  ****    0 ROOT
