@<TRIPOS>MOLECULE
molecule
   65    69     1     0     0
SMALL
bcc


@<TRIPOS>ATOM
      1 CAL          0.0000     0.0000     0.0000 c3         1 V68      -0.073900
      2 CAN          1.5300     0.0000     0.0000 c3         1 V68       0.165300
      3 NBF          2.0200     0.0000     1.3840 n3         1 V68      -0.732600
      4 CAC          3.4820     0.1390     1.4250 c3         1 V68       0.153100
      5 CAO          1.5860    -1.2050     2.1030 c3         1 V68       0.165300
      6 CAM          0.0570    -1.2390     2.1650 c3         1 V68      -0.073900
      7 CBE         -0.5080    -1.2390     0.7400 c3         1 V68      -0.096700
      8 CAQ         -2.0360    -1.2130     0.7970 c3         1 V68       0.086300
      9 NBG         -2.5770    -1.3340    -0.5590 na         1 V68      -0.026800
     10 NAT         -2.8540    -0.2640    -1.4170 nc         1 V68      -0.494100
     11 C4          -2.8840    -2.5060    -1.1830 ca         1 V68       0.531800
     12 N3          -2.8140    -3.7930    -0.8400 nb         1 V68      -0.805000
     13 C2          -3.1930    -4.7320    -1.6790 ca         1 V68       0.752900
     14 N1          -3.6550    -4.4660    -2.8870 nb         1 V68      -0.838000
     15 C6          -3.7620    -3.2130    -3.3220 ca         1 V68       0.791200
     16 NAD         -4.2450    -2.9410    -4.5860 nv         1 V68      -1.013500
     17 C5          -3.3700    -2.1740    -2.4620 ca         1 V68      -0.533500
     18 CAY         -3.3270    -0.7150    -2.5540 cd         1 V68       0.445500
     19 CAW         -3.7400     0.1020    -3.7200 ca         1 V68      -0.111900
     20 CAK         -4.9210    -0.1880    -4.3770 ca         1 V68      -0.092000
     21 CAF         -2.9300     1.1690    -4.1440 ca         1 V68      -0.093000
     22 CAH         -3.2860     1.9340    -5.2080 ca         1 V68      -0.128000
     23 CAZ         -4.4800     1.6610    -5.9020 ca         1 V68       0.007000
     24 CAJ         -4.8680     2.4390    -7.0040 ca         1 V68      -0.167000
     25 CBA         -5.3070     0.5890    -5.4800 ca         1 V68      -0.078000
     26 CAG         -6.5020     0.3230    -6.1710 ca         1 V68      -0.077000
     27 CAE         -6.8550     1.0920    -7.2360 ca         1 V68      -0.204000
     28 CAV         -6.0420     2.1470    -7.6620 ca         1 V68       0.150100
     29 OAU         -6.4190     2.8980    -8.7280 os         1 V68      -0.327900
     30 CAP         -7.6470     2.5460    -9.3680 c3         1 V68       0.140400
     31 CBD         -7.9030     3.4970   -10.5390 c3         1 V68      -0.075700
     32 CAB         -6.8210     3.3000   -11.6030 c3         1 V68      -0.087600
     33 CAA         -9.2750     3.1990   -11.1470 c3         1 V68      -0.087600
     34 H1          -0.3600    -0.0180    -1.0220 hc         1 V68       0.053700
     35 H2          -0.3600     0.8910     0.5000 hc         1 V68       0.053700
     36 H3           1.8890     0.8860    -0.5090 h1         1 V68       0.034200
     37 H4           1.8900    -0.8860    -0.5090 h1         1 V68       0.034200
     38 H6           3.7710     1.0590     0.9320 h1         1 V68       0.031367
     39 H7           3.9390    -0.7010     0.9170 h1         1 V68       0.031367
     40 H8           3.8140     0.1620     2.4560 h1         1 V68       0.031367
     41 H9           1.9860    -1.1870     3.1090 h1         1 V68       0.034200
     42 H10          1.9450    -2.0840     1.5820 h1         1 V68       0.034200
     43 H11         -0.3020    -0.3650     2.6950 hc         1 V68       0.053700
     44 H12         -0.2630    -2.1380     2.6800 hc         1 V68       0.053700
     45 H13         -0.1750    -2.1300     0.2210 hc         1 V68       0.064700
     46 H14         -2.3890    -2.0390     1.4020 h1         1 V68       0.072200
     47 H15         -2.3650    -0.2780     1.2350 h1         1 V68       0.072200
     48 H16         -3.1220    -5.7670    -1.3660 h5         1 V68       0.060100
     49 H17         -4.9310    -3.5420    -4.9990 hn         1 V68       0.447800
     50 H18         -3.8640    -2.1820    -5.1140 hn         1 V68       0.447800
     51 H19         -5.6060    -0.9170    -3.9620 ha         1 V68       0.148000
     52 H20         -2.0090     1.3850    -3.6150 ha         1 V68       0.143000
     53 H21         -2.6520     2.7530    -5.5230 ha         1 V68       0.139000
     54 H22         -4.2440     3.2580    -7.3400 ha         1 V68       0.150000
     55 H23         -7.1420    -0.4910    -5.8540 ha         1 V68       0.135000
     56 H24         -7.7750     0.8780    -7.7680 ha         1 V68       0.137000
     57 H25         -8.4600     2.6210    -8.6560 h1         1 V68       0.036200
     58 H26         -7.5830     1.5290    -9.7370 h1         1 V68       0.036200
     59 H27         -7.8790     4.5210   -10.1850 hc         1 V68       0.064700
     60 H28         -7.0940     3.8420   -12.5000 hc         1 V68       0.038700
     61 H29         -6.7290     2.2450   -11.8320 hc         1 V68       0.038700
     62 H30         -5.8750     3.6720   -11.2290 hc         1 V68       0.038700
     63 H31         -9.3000     2.1740   -11.4970 hc         1 V68       0.038700
     64 H32         -9.4550     3.8700   -11.9780 hc         1 V68       0.038700
     65 H33        -10.0420     3.3420   -10.3950 hc         1 V68       0.038700
@<TRIPOS>BOND
     1     5     6 1
     2     5     3 1
     3     6     7 1
     4     4     3 1
     5     3     2 1
     6     7     8 1
     7     7     1 1
     8     2     1 1
     9     8     9 1
    10    12    13 ar
    11    12    11 ar
    12    13    14 ar
    13     9    11 1
    14     9    10 1
    15    11    17 ar
    16    21    22 ar
    17    21    19 ar
    18    10    18 2
    19    14    15 ar
    20    17    15 ar
    21    17    18 1
    22    15    16 1
    23    18    19 1
    24    22    23 ar
    25    19    20 ar
    26    23    24 ar
    27    23    25 ar
    28    24    28 ar
    29    33    31 1
    30    20    25 ar
    31    25    26 ar
    32    30    31 1
    33    30    29 1
    34    31    32 1
    35    28    29 1
    36    28    27 ar
    37    26    27 ar
    38     1    34 1
    39     1    35 1
    40     2    36 1
    41     2    37 1
    42     4    38 1
    43     4    39 1
    44     4    40 1
    45     5    41 1
    46     5    42 1
    47     6    43 1
    48     6    44 1
    49     7    45 1
    50     8    46 1
    51     8    47 1
    52    13    48 1
    53    16    49 1
    54    16    50 1
    55    20    51 1
    56    21    52 1
    57    22    53 1
    58    24    54 1
    59    26    55 1
    60    27    56 1
    61    30    57 1
    62    30    58 1
    63    31    59 1
    64    32    60 1
    65    32    61 1
    66    32    62 1
    67    33    63 1
    68    33    64 1
    69    33    65 1
@<TRIPOS>SUBSTRUCTURE
     1 V68         1 TEMP              0 ****  ****    0 ROOT
