@<TRIPOS>MOLECULE
V68
   65    69     1     0     0
SMALL
bcc


@<TRIPOS>ATOM
      1 CAL          0.0000     0.0000     0.0000 c3         1 V68      -0.025900
      2 CAN          1.5300     0.0000     0.0000 c3         1 V68       0.157800
      3 NBF          2.0200     0.0000     1.3840 n3         1 V68      -0.544600
      4 CAC          3.4820     0.1390     1.4250 c3         1 V68       0.188100
      5 CAO          1.5860    -1.2050     2.1030 c3         1 V68       0.157800
      6 CAM          0.0570    -1.2390     2.1650 c3         1 V68      -0.025900
      7 CBE         -0.5080    -1.2390     0.7400 c3         1 V68      -0.074700
      8 CAQ         -2.0360    -1.2130     0.7970 c3         1 V68      -0.001700
      9 NBG         -2.5770    -1.3340    -0.5590 na         1 V68       0.381200
     10 NAT         -2.8540    -0.2640    -1.4170 nc         1 V68      -0.626100
     11 C4          -2.8840    -2.5060    -1.1830 ca         1 V68       0.346800
     12 N3          -2.8140    -3.7930    -0.8400 nb         1 V68      -0.697000
     13 C2          -3.1930    -4.7320    -1.6790 ca         1 V68       0.708900
     14 N1          -3.6550    -4.4660    -2.8870 nb         1 V68      -0.747000
     15 C6          -3.7620    -3.2130    -3.3220 ca         1 V68       0.614200
     16 NAD         -4.2450    -2.9410    -4.5860 nv         1 V68      -0.541500
     17 C5          -3.3700    -2.1740    -2.4620 ca         1 V68      -0.550500
     18 CAY         -3.3270    -0.7150    -2.5540 cd         1 V68       0.484500
     19 CAW         -3.7400     0.1020    -3.7200 ca         1 V68      -0.109900
     20 CAK         -4.9210    -0.1880    -4.3770 ca         1 V68      -0.081000
     21 CAF         -2.9300     1.1690    -4.1440 ca         1 V68      -0.067000
     22 CAH         -3.2860     1.9340    -5.2080 ca         1 V68      -0.099000
     23 CAZ         -4.4800     1.6610    -5.9020 ca         1 V68       0.010000
     24 CAJ         -4.8680     2.4390    -7.0040 ca         1 V68      -0.149000
     25 CBA         -5.3070     0.5890    -5.4800 ca         1 V68      -0.077000
     26 CAG         -6.5020     0.3230    -6.1710 ca         1 V68      -0.045000
     27 CAE         -6.8550     1.0920    -7.2360 ca         1 V68      -0.193000
     28 CAV         -6.0420     2.1470    -7.6620 ca         1 V68       0.157100
     29 OAU         -6.4190     2.8980    -8.7280 os         1 V68      -0.302900
     30 CAP         -7.6470     2.5460    -9.3680 c3         1 V68       0.201400
     31 CBD         -7.9030     3.4970   -10.5390 c3         1 V68      -0.059700
     32 CAB         -6.8210     3.3000   -11.6030 c3         1 V68       0.008400
     33 CAA         -9.2750     3.1990   -11.1470 c3         1 V68       0.008400
     34 H1          -0.3600    -0.0180    -1.0220 hc         1 V68       0.026700
     35 H2          -0.3600     0.8910     0.5000 hc         1 V68       0.026700
     36 H3           1.8890     0.8860    -0.5090 h1         1 V68       0.008700
     37 H4           1.8900    -0.8860    -0.5090 h1         1 V68       0.008700
     38 H6           3.7710     1.0590     0.9320 h1         1 V68      -0.000300
     39 H7           3.9390    -0.7010     0.9170 h1         1 V68      -0.000300
     40 H8           3.8140     0.1620     2.4560 h1         1 V68      -0.000300
     41 H9           1.9860    -1.1870     3.1090 h1         1 V68       0.008700
     42 H10          1.9450    -2.0840     1.5820 h1         1 V68       0.008700
     43 H11         -0.3020    -0.3650     2.6950 hc         1 V68       0.026700
     44 H12         -0.2630    -2.1380     2.6800 hc         1 V68       0.026700
     45 H13         -0.1750    -2.1300     0.2210 hc         1 V68       0.039700
     46 H14         -2.3890    -2.0390     1.4020 h1         1 V68       0.042700
     47 H15         -2.3650    -0.2780     1.2350 h1         1 V68       0.042700
     48 H16         -3.1220    -5.7670    -1.3660 h5         1 V68      -0.005900
     49 H17         -4.9310    -3.5420    -4.9990 hn         1 V68       0.283300
     50 H18         -3.8640    -2.1820    -5.1140 hn         1 V68       0.283300
     51 H19         -5.6060    -0.9170    -3.9620 ha         1 V68       0.119000
     52 H20         -2.0090     1.3850    -3.6150 ha         1 V68       0.115000
     53 H21         -2.6520     2.7530    -5.5230 ha         1 V68       0.111000
     54 H22         -4.2440     3.2580    -7.3400 ha         1 V68       0.123000
     55 H23         -7.1420    -0.4910    -5.8540 ha         1 V68       0.104000
     56 H24         -7.7750     0.8780    -7.7680 ha         1 V68       0.120000
     57 H25         -8.4600     2.6210    -8.6560 h1         1 V68       0.003700
     58 H26         -7.5830     1.5290    -9.7370 h1         1 V68       0.003700
     59 H27         -7.8790     4.5210   -10.1850 hc         1 V68       0.035700
     60 H28         -7.0940     3.8420   -12.5000 hc         1 V68       0.005533
     61 H29         -6.7290     2.2450   -11.8320 hc         1 V68       0.005533
     62 H30         -5.8750     3.6720   -11.2290 hc         1 V68       0.005533
     63 H31         -9.3000     2.1740   -11.4970 hc         1 V68       0.005533
     64 H32         -9.4550     3.8700   -11.9780 hc         1 V68       0.005533
     65 H33        -10.0420     3.3420   -10.3950 hc         1 V68       0.005533
@<TRIPOS>BOND
     1     1     2 1   
     2     1     7 1   
     3     1    34 1   
     4     1    35 1   
     5     2     3 1   
     6     2    36 1   
     7     2    37 1   
     8     3     4 1   
     9     3     5 1   
    10     4    38 1   
    11     4    39 1   
    12     4    40 1   
    13     5     6 1   
    14     5    41 1   
    15     5    42 1   
    16     6     7 1   
    17     6    43 1   
    18     6    44 1   
    19     7     8 1   
    20     7    45 1   
    21     8     9 1   
    22     8    46 1   
    23     8    47 1   
    24     9    10 1   
    25     9    11 1   
    26    10    18 2   
    27    11    12 ar  
    28    11    17 ar  
    29    12    13 ar  
    30    13    14 ar  
    31    13    48 1   
    32    14    15 ar  
    33    15    16 1   
    34    15    17 ar  
    35    16    49 1   
    36    16    50 1   
    37    17    18 1   
    38    18    19 1   
    39    19    20 ar  
    40    19    21 ar  
    41    20    25 ar  
    42    20    51 1   
    43    21    22 ar  
    44    21    52 1   
    45    22    23 ar  
    46    22    53 1   
    47    23    24 ar  
    48    23    25 ar  
    49    24    28 ar  
    50    24    54 1   
    51    25    26 ar  
    52    26    27 ar  
    53    26    55 1   
    54    27    28 ar  
    55    27    56 1   
    56    28    29 1   
    57    29    30 1   
    58    30    31 1   
    59    30    57 1   
    60    30    58 1   
    61    31    32 1   
    62    31    33 1   
    63    31    59 1   
    64    32    60 1   
    65    32    61 1   
    66    32    62 1   
    67    33    63 1   
    68    33    64 1   
    69    33    65 1   
@<TRIPOS>SUBSTRUCTURE
     1 V68         1 TEMP              0 ****  ****    0 ROOT
