@<TRIPOS>MOLECULE
molecule
   74    74     1     0     0
SMALL
bcc


@<TRIPOS>ATOM
      1 C01          0.0000     0.0000     0.0000 c3         1 V69      -0.092100
      2 C02          1.5310     0.0000     0.0000 c3         1 V69      -0.083400
      3 C03          2.0410     0.0000     1.4430 c3         1 V69      -0.082400
      4 C04          3.5700     0.0010     1.4420 c3         1 V69      -0.084400
      5 C05          4.0820     0.0020     2.8840 c3         1 V69      -0.079400
      6 C06          5.6110     0.0020     2.8840 c3         1 V69       0.166100
      7 C08          7.3760     1.2650     1.8890 c          1 V69       0.739100
      8 C24          6.1220    -0.1230     4.3210 c3         1 V69      -0.109400
      9 C25          7.1980    -1.2080     4.3870 c3         1 V69      -0.081400
     10 C26          8.4140    -0.6750     5.1470 c3         1 V69      -0.099400
     11 C27          8.1680    -0.7970     6.6520 c3         1 V69      -0.113400
     12 C28          9.5020    -1.0130     7.3700 c3         1 V69       0.090000
     13 N29         10.3630     0.1710     7.1300 ns         1 V69      -0.579900
     14 O07          6.0950     1.2420     2.3050 os         1 V69      -0.432900
     15 O23          8.0800     0.2800     1.9920 o          1 V69      -0.601000
     16 N09          7.8650     2.4230     1.3470 ns         1 V69      -0.543900
     17 C10          9.2820     2.3530     0.9140 c3         1 V69       0.042700
     18 C15         10.1590     2.6870     2.0940 c          1 V69       0.646100
     19 O22          9.8140     3.5250     2.8990 o          1 V69      -0.607100
     20 C11          9.5250     3.3580    -0.2130 c3         1 V69      -0.076400
     21 C12          8.7070     2.9540    -1.4420 c3         1 V69      -0.076700
     22 C13          8.8520     4.0230    -2.5250 c3         1 V69      -0.090600
     23 C14          9.2190     1.6140    -1.9760 c3         1 V69      -0.090600
     24 N16         11.3460     2.0330     2.2420 ns         1 V69      -0.559900
     25 C17         12.1540     2.4080     3.4210 c3         1 V69       0.095700
     26 C18         12.5000     1.1400     4.2040 c3         1 V69      -0.093400
     27 C19         12.0020     1.2770     5.6440 c3         1 V69      -0.159400
     28 C30         11.0950     0.1200     5.9750 c          1 V69       0.654100
     29 O31         11.0150    -0.8360     5.2330 o          1 V69      -0.595100
     30 C20         13.4420     3.0950     2.9620 c3         1 V69       0.118400
     31 O21         13.1200     4.3380     2.3330 oh         1 V69      -0.604800
     32 H1          -0.3610    -0.0000    -1.0210 hc         1 V69       0.032367
     33 H2          -0.3610     0.8850     0.5100 hc         1 V69       0.032367
     34 H3          -0.3610    -0.8840     0.5110 hc         1 V69       0.032367
     35 H4           1.8920    -0.8850    -0.5110 hc         1 V69       0.040700
     36 H5           1.8920     0.8850    -0.5110 hc         1 V69       0.040700
     37 H6           1.6790     0.8840     1.9540 hc         1 V69       0.040200
     38 H7           1.6800    -0.8850     1.9530 hc         1 V69       0.040200
     39 H8           3.9310     0.8860     0.9310 hc         1 V69       0.048200
     40 H9           3.9320    -0.8830     0.9310 hc         1 V69       0.048200
     41 H10          3.7210    -0.8820     3.3950 hc         1 V69       0.055200
     42 H11          3.7210     0.8870     3.3940 hc         1 V69       0.055200
     43 H12          5.9730    -0.8350     2.2980 h1         1 V69       0.069700
     44 H30          5.3000    -0.3890     4.9740 hc         1 V69       0.052200
     45 H31          6.5430     0.8240     4.6380 hc         1 V69       0.052200
     46 H32          7.4940    -1.4850     3.3820 hc         1 V69       0.050200
     47 H33          6.8040    -2.0770     4.9000 hc         1 V69       0.050200
     48 H34          8.5720     0.3660     4.8910 hc         1 V69       0.071200
     49 H35          9.2910    -1.2510     4.8770 hc         1 V69       0.071200
     50 H36          7.5150    -1.6400     6.8440 hc         1 V69       0.040200
     51 H37          7.7040     0.1110     7.0170 hc         1 V69       0.040200
     52 H38          9.3290    -1.1280     8.4330 h1         1 V69       0.061200
     53 H39          9.9870    -1.9000     6.9810 h1         1 V69       0.061200
     54 H42         10.1190     1.0560     7.5300 hn         1 V69       0.314500
     55 H40          7.4620     3.3030     1.6030 hn         1 V69       0.336500
     56 H13          9.5070     1.3520     0.5650 h1         1 V69       0.103700
     57 H14          9.2240     4.3460     0.1130 hc         1 V69       0.057200
     58 H15         10.5780     3.3670    -0.4680 hc         1 V69       0.057200
     59 H16          7.6640     2.8580    -1.1660 hc         1 V69       0.064700
     60 H17          9.9010     4.1610    -2.7580 hc         1 V69       0.035533
     61 H18          8.4360     4.9570    -2.1680 hc         1 V69       0.035533
     62 H19          8.3230     3.7090    -3.4160 hc         1 V69       0.035533
     63 H20         10.3030     1.6100    -1.9610 hc         1 V69       0.035533
     64 H21          8.8720     1.4740    -2.9930 hc         1 V69       0.035533
     65 H22          8.8460     0.8110    -1.3530 hc         1 V69       0.035533
     66 H41         11.7840     1.6060     1.4500 hn         1 V69       0.317500
     67 H23         11.5860     3.0820     4.0520 h1         1 V69       0.105700
     68 H24         13.5740     0.9980     4.2050 hc         1 V69       0.072700
     69 H25         12.0240     0.2860     3.7370 hc         1 V69       0.072700
     70 H26         11.4550     2.2060     5.7500 hc         1 V69       0.065200
     71 H27         12.8480     1.2780     6.3210 hc         1 V69       0.065200
     72 H28         14.0780     3.2780     3.8200 h1         1 V69       0.025200
     73 H29         13.9610     2.4560     2.2570 h1         1 V69       0.025200
     74 H43         13.9090     4.8370     2.2030 ho         1 V69       0.402000
@<TRIPOS>BOND
     1    31    30 1
     2    30    25 1
     3    29    28 2
     4    25    26 1
     5    25    24 1
     6    26    27 1
     7    28    27 1
     8    28    13 1
     9    12    13 1
    10    12    11 1
    11    24    18 1
    12    19    18 2
    13    11    10 1
    14    18    17 1
    15    20    17 1
    16    20    21 1
    17    10     9 1
    18    17    16 1
    19     9     8 1
    20    22    21 1
    21    16     7 1
    22    21    23 1
    23    15     7 2
    24     7    14 1
    25     8     6 1
    26    14     6 1
    27     6     5 1
    28     5     4 1
    29     4     3 1
    30     1     2 1
    31     3     2 1
    32     1    32 1
    33     1    33 1
    34     1    34 1
    35     2    35 1
    36     2    36 1
    37     3    37 1
    38     3    38 1
    39     4    39 1
    40     4    40 1
    41     5    41 1
    42     5    42 1
    43     6    43 1
    44    17    56 1
    45    20    57 1
    46    20    58 1
    47    21    59 1
    48    22    60 1
    49    22    61 1
    50    22    62 1
    51    23    63 1
    52    23    64 1
    53    23    65 1
    54    25    67 1
    55    26    68 1
    56    26    69 1
    57    27    70 1
    58    27    71 1
    59    30    72 1
    60    30    73 1
    61     8    44 1
    62     8    45 1
    63     9    46 1
    64     9    47 1
    65    10    48 1
    66    10    49 1
    67    11    50 1
    68    11    51 1
    69    12    52 1
    70    12    53 1
    71    16    55 1
    72    24    66 1
    73    13    54 1
    74    31    74 1
@<TRIPOS>SUBSTRUCTURE
     1 V69         1 TEMP              0 ****  ****    0 ROOT
