@<TRIPOS>MOLECULE
V6F
   27    27     1     0     0
SMALL
bcc


@<TRIPOS>ATOM
      1 O01          0.0000     0.0000     0.0000 oh         1 V6F      -0.573800
      2 C02          1.4300     0.0000     0.0000 c3         1 V6F       0.179100
      3 C03          1.9850     0.0000     1.4490 c3         1 V6F      -0.046400
      4 C04          1.9280     1.4920     1.8410 c3         1 V6F      -0.030300
      5 C05          3.1410     1.8540     2.6590 c          1 V6F       0.564100
      6 N06          3.1850     1.5500     3.9710 ns         1 V6F      -0.190900
      7 C07          4.3650     1.9020     4.7650 c3         1 V6F       0.086300
      8 O08          4.0780     2.4180     2.1350 o          1 V6F      -0.634100
      9 N09          1.9130     2.2700     0.5940 n          1 V6F      -0.128800
     10 C10          1.8470     3.6130     0.5080 c          1 V6F       0.613100
     11 C11          1.8410     4.2830    -0.8420 c3         1 V6F      -0.067100
     12 O12          1.7930     4.2840     1.5170 o          1 V6F      -0.645100
     13 C13          1.9850     1.3390    -0.5460 c3         1 V6F       0.031000
     14 H01         -0.3140    -0.7730    -0.4380 ho         1 V6F       0.392000
     15 H02          1.8240    -0.8380    -0.5630 h1         1 V6F       0.011700
     16 H031         1.3520    -0.5900     2.1000 hc         1 V6F       0.034200
     17 H032         3.0060    -0.3600     1.4660 hc         1 V6F       0.034200
     18 H131         1.3690     1.6960    -1.3620 h1         1 V6F       0.029200
     19 H132         3.0130     1.2160    -0.8660 h1         1 V6F       0.029200
     20 H04          1.0240     1.6880     2.4060 h1         1 V6F       0.047700
     21 H06          2.4000     1.1110     4.4090 hn         1 V6F       0.168500
     22 H071         5.2430     1.4420     4.3300 h1         1 V6F       0.009700
     23 H072         4.4870     2.9790     4.7720 h1         1 V6F       0.009700
     24 H073         4.2360     1.5470     5.7800 h1         1 V6F       0.009700
     25 H111         2.7090     3.9650    -1.4060 hc         1 V6F       0.022700
     26 H112         1.8680     5.3580    -0.7120 hc         1 V6F       0.022700
     27 H113         0.9410     4.0060    -1.3780 hc         1 V6F       0.022700
@<TRIPOS>BOND
     1     1     2 1   
     2     1    14 1   
     3     2     3 1   
     4     2    13 1   
     5     2    15 1   
     6     3     4 1   
     7     3    16 1   
     8     3    17 1   
     9     4     5 1   
    10     4     9 1   
    11     4    20 1   
    12     5     6 1   
    13     5     8 2   
    14     6     7 1   
    15     6    21 1   
    16     7    22 1   
    17     7    23 1   
    18     7    24 1   
    19     9    10 1   
    20     9    13 1   
    21    10    11 1   
    22    10    12 2   
    23    11    25 1   
    24    11    26 1   
    25    11    27 1   
    26    13    18 1   
    27    13    19 1   
@<TRIPOS>SUBSTRUCTURE
     1 V6F         1 TEMP              0 ****  ****    0 ROOT
