@<TRIPOS>MOLECULE
molecule
   27    27     1     0     0
SMALL
bcc


@<TRIPOS>ATOM
      1 O01          0.0000     0.0000     0.0000 oh         1 V6F      -0.591800
      2 C02          1.4300     0.0000     0.0000 c3         1 V6F       0.127100
      3 C03          1.9850     0.0000     1.4490 c3         1 V6F      -0.100400
      4 C04          1.9280     1.4920     1.8410 c3         1 V6F       0.049700
      5 C05          3.1410     1.8540     2.6590 c          1 V6F       0.651100
      6 N06          3.1850     1.5500     3.9710 ns         1 V6F      -0.588900
      7 C07          4.3650     1.9020     4.7650 c3         1 V6F       0.104300
      8 O08          4.0780     2.4180     2.1350 o          1 V6F      -0.591100
      9 N09          1.9130     2.2700     0.5940 n          1 V6F      -0.473800
     10 C10          1.8470     3.6130     0.5080 c          1 V6F       0.689100
     11 C11          1.8410     4.2830    -0.8420 c3         1 V6F      -0.163100
     12 O12          1.7930     4.2840     1.5170 o          1 V6F      -0.600100
     13 C13          1.9850     1.3390    -0.5460 c3         1 V6F       0.091000
     14 H01         -0.3140    -0.7730    -0.4380 ho         1 V6F       0.404000
     15 H02          1.8240    -0.8380    -0.5630 h1         1 V6F       0.048700
     16 H031         1.3520    -0.5900     2.1000 hc         1 V6F       0.066700
     17 H032         3.0060    -0.3600     1.4660 hc         1 V6F       0.066700
     18 H131         1.3690     1.6960    -1.3620 h1         1 V6F       0.057700
     19 H132         3.0130     1.2160    -0.8660 h1         1 V6F       0.057700
     20 H04          1.0240     1.6880     2.4060 h1         1 V6F       0.077700
     21 H06          2.4000     1.1110     4.4090 hn         1 V6F       0.310500
     22 H071         5.2430     1.4420     4.3300 h1         1 V6F       0.042033
     23 H072         4.4870     2.9790     4.7720 h1         1 V6F       0.042033
     24 H073         4.2360     1.5470     5.7800 h1         1 V6F       0.042033
     25 H111         2.7090     3.9650    -1.4060 hc         1 V6F       0.060367
     26 H112         1.8680     5.3580    -0.7120 hc         1 V6F       0.060367
     27 H113         0.9410     4.0060    -1.3780 hc         1 V6F       0.060367
@<TRIPOS>BOND
     1     1     2 1
     2     2     3 1
     3     2    13 1
     4     3     4 1
     5     4     5 1
     6     4     9 1
     7     5     6 1
     8     5     8 2
     9     6     7 1
    10     9    10 1
    11     9    13 1
    12    10    11 1
    13    10    12 2
    14     1    14 1
    15     2    15 1
    16     3    16 1
    17     3    17 1
    18    13    18 1
    19    13    19 1
    20     4    20 1
    21     6    21 1
    22     7    22 1
    23     7    23 1
    24     7    24 1
    25    11    25 1
    26    11    26 1
    27    11    27 1
@<TRIPOS>SUBSTRUCTURE
     1 V6F         1 TEMP              0 ****  ****    0 ROOT
