@<TRIPOS>MOLECULE
molecule
   51    52     1     0     0
SMALL
bcc


@<TRIPOS>ATOM
      1 C1           0.0000     0.0000     0.0000 c3         1 V71       0.321900
      2 C10         -1.8730    -1.4320     0.4320 c3         1 V71       0.121100
      3 C11         -2.0810    -2.2460    -0.8460 c3         1 V71       0.128100
      4 C12         -3.5750    -2.5010    -1.0510 c3         1 V71       0.094100
      5 C2           1.5300     0.0000     0.0000 c3         1 V71       0.099500
      6 C3           2.0320     0.0000     1.4480 c3         1 V71       0.105100
      7 C4           1.4510     1.2140     2.1790 c3         1 V71       0.148600
      8 C5          -0.0770     1.1670     2.0940 c3         1 V71       0.070100
      9 C6          -0.6640     2.4080     2.7700 c3         1 V71       0.107800
     10 C7          -4.1290    -3.2790     0.1440 c3         1 V71       0.113500
     11 C8          -3.9210    -2.4650     1.4230 c3         1 V71      -0.136400
     12 C9          -2.4260    -2.2100     1.6280 c3         1 V71       0.115500
     13 F99          1.9180     2.3880     1.5790 f          1 V71      -0.159300
     14 N2           2.0220    -1.2000    -0.6900 nz         1 V71      -0.800600
     15 N6          -2.1290     2.3050     2.7940 nz         1 V71      -0.815600
     16 N7          -5.5640    -3.5240    -0.0520 nz         1 V71      -0.802600
     17 N9          -2.2270    -1.4290     2.8550 nz         1 V71      -0.807600
     18 O1          -0.4780    -1.1940     0.6240 os         1 V71      -0.484600
     19 O11         -1.5640    -1.5190    -1.9620 oh         1 V71      -0.607800
     20 O12         -3.7700    -3.2620    -2.2450 oh         1 V71      -0.567800
     21 O23          3.4590     0.0730     1.4580 oh         1 V71      -0.548800
     22 O5          -0.4760     1.1380     0.7220 os         1 V71      -0.412600
     23 H1          -0.3590     0.0470    -1.0210 h2         1 V71       0.163700
     24 H2          -2.3970    -0.4880     0.3450 h1         1 V71       0.075700
     25 H3          -1.5640    -3.1940    -0.7560 h1         1 V71       0.092700
     26 H4          -4.0930    -1.5530    -1.1330 h1         1 V71       0.074700
     27 H5           1.8910     0.8880    -0.5060 hx         1 V71       0.192700
     28 H6           1.7080    -0.9080     1.9420 h1         1 V71       0.051700
     29 H7           1.7550     1.1870     3.2190 h1         1 V71       0.121700
     30 H8          -0.4370     0.2750     2.5910 h1         1 V71      -0.000300
     31 H9          -0.3730     3.2930     2.2170 hx         1 V71       0.168200
     32 H10         -0.2900     2.4770     3.7840 hx         1 V71       0.168200
     33 H11         -3.6050    -4.2240     0.2310 hx         1 V71       0.153700
     34 H12         -4.4390    -1.5180     1.3340 hc         1 V71       0.099700
     35 H13         -4.3110    -3.0180     2.2690 hc         1 V71       0.099700
     36 H14         -1.9080    -3.1580     1.7110 hx         1 V71       0.160700
     37 H15          1.8240    -2.0090    -0.1350 hn         1 V71       0.478800
     38 H16          3.0100    -1.1240    -0.8290 hn         1 V71       0.478800
     39 H18         -2.4030     1.5940     3.4440 hn         1 V71       0.463133
     40 H19         -2.5200     3.1820     3.0750 hn         1 V71       0.463133
     41 H21         -5.9570    -3.9000     0.7880 hn         1 V71       0.484800
     42 H22         -5.6920    -4.1770    -0.8010 hn         1 V71       0.484800
     43 H24         -1.2520    -1.4020     3.0790 hn         1 V71       0.464800
     44 H25         -2.7300    -1.8550     3.6080 hn         1 V71       0.464800
     45 H27         -1.4880    -2.0950    -2.7050 ho         1 V71       0.478000
     46 H28         -4.1190    -2.7040    -2.9200 ho         1 V71       0.471000
     47 H29          3.7900    -0.3450     2.2360 ho         1 V71       0.468000
     48 H23          1.5750    -1.2780    -1.5820 hn         1 V71       0.478800
     49 H63         -2.4630     2.0790     1.8780 hn         1 V71       0.463133
     50 H73         -6.0190    -2.6660    -0.2940 hn         1 V71       0.484800
     51 H93         -2.5410    -0.4900     2.7080 hn         1 V71       0.464800
@<TRIPOS>BOND
     1    15     9 1
     2     9     8 1
     3    13     7 1
     4    22     8 1
     5    22     1 1
     6     8     7 1
     7     7     6 1
     8     1     5 1
     9     1    18 1
    10     5     6 1
    11     5    14 1
    12    19     3 1
    13     6    21 1
    14    18     2 1
    15     2     3 1
    16     2    12 1
    17    17    12 1
    18     3     4 1
    19     4    20 1
    20     4    10 1
    21    12    11 1
    22    11    10 1
    23    10    16 1
    24     1    23 1
    25     2    24 1
    26     3    25 1
    27     4    26 1
    28     5    27 1
    29     6    28 1
    30     7    29 1
    31     8    30 1
    32     9    31 1
    33     9    32 1
    34    10    33 1
    35    11    34 1
    36    11    35 1
    37    12    36 1
    38    14    37 1
    39    14    38 1
    40    15    39 1
    41    15    40 1
    42    16    41 1
    43    16    42 1
    44    17    43 1
    45    17    44 1
    46    19    45 1
    47    20    46 1
    48    21    47 1
    49    48    14 1
    50    49    15 1
    51    50    16 1
    52    51    17 1
@<TRIPOS>SUBSTRUCTURE
     1 V71         1 TEMP              0 ****  ****    0 ROOT
