@<TRIPOS>MOLECULE
V7H
   63    66     1     0     0
SMALL
bcc


@<TRIPOS>ATOM
      1 C35          0.0000     0.0000     0.0000 ca         1 V7H      -0.107000
      2 C25          3.0760     5.3800     5.3190 ca         1 V7H      -0.134000
      3 C34          1.3830     0.0000     0.0000 ca         1 V7H      -0.109000
      4 C36         -0.6900    -0.0010     1.1980 ca         1 V7H      -0.109000
      5 C24          3.7580     5.6280     6.4980 ca         1 V7H      -0.086000
      6 C26          2.8420     4.0820     4.9150 ca         1 V7H      -0.100000
      7 C33          2.0740     0.0000     1.1970 ca         1 V7H      -0.083500
      8 C37          0.0020    -0.0020     2.3940 ca         1 V7H      -0.083500
      9 C23          4.2070     4.5780     7.2770 ca         1 V7H      -0.093000
     10 C2           7.4960    -1.1580     6.5820 ca         1 V7H      -0.113000
     11 C3           8.6680    -1.6350     6.0190 ca         1 V7H      -0.150000
     12 C27          3.2940     3.0180     5.6970 ca         1 V7H      -0.140600
     13 C6           8.7160     0.6450     7.6000 ca         1 V7H      -0.073600
     14 C32          1.3840    -0.0010     2.3940 ca         1 V7H      -0.110300
     15 C22          3.9800     3.2750     6.8840 ca         1 V7H       0.009700
     16 C1           7.5120    -0.0270     7.3680 ca         1 V7H      -0.090300
     17 C4           9.8690    -0.9800     6.2380 ca         1 V7H       0.059100
     18 C5           9.9020     0.1610     7.0300 ca         1 V7H       0.083100
     19 C28          3.0470     1.6240     5.2690 c          1 V7H       0.597700
     20 C16         14.6840    -3.2070     4.2510 c          1 V7H       0.983600
     21 C11         12.1580     0.5250     6.3790 c3         1 V7H       0.161400
     22 C12         12.2470    -0.9980     6.2110 c3         1 V7H       0.125100
     23 C31          2.1390    -0.0020     3.6980 c3         1 V7H       0.112300
     24 C21          4.4730     2.1330     7.7360 c3         1 V7H       0.170100
     25 C19          6.2330     0.4870     7.9750 c3         1 V7H       0.211100
     26 C14         13.3920    -1.3460     5.2570 c3         1 V7H      -0.014400
     27 N30          2.3830     1.3790     4.1220 ns         1 V7H      -0.225900
     28 N20          5.7220     1.6060     7.1700 n7         1 V7H      -0.592200
     29 O9           8.5630     3.0690     7.8780 o          1 V7H      -0.894300
     30 O18         15.2920    -2.3260     3.6910 o          1 V7H      -0.916300
     31 O29          3.4420     0.7000     5.9530 o          1 V7H      -0.606100
     32 O8           8.9150     1.7610     9.6390 o          1 V7H      -0.894300
     33 O17         15.0110    -4.4900     4.0340 o          1 V7H      -0.916300
     34 O10         11.0690     0.8150     7.2640 os         1 V7H      -0.274900
     35 O13         11.0070    -1.4640     5.6680 os         1 V7H      -0.296900
     36 H35         -0.5420     0.0000    -0.9380 ha         1 V7H       0.095000
     37 H34          1.9240     0.0010    -0.9380 ha         1 V7H       0.099000
     38 H36         -1.7730    -0.0020     1.1990 ha         1 V7H       0.099000
     39 H25          2.7250     6.2060     4.7120 ha         1 V7H       0.090000
     40 H24          3.9390     6.6490     6.8120 ha         1 V7H       0.094000
     41 H26          2.3090     3.8890     3.9920 ha         1 V7H       0.090000
     42 H33          3.1570     0.0000     1.1960 ha         1 V7H       0.112500
     43 H37         -0.5390    -0.0020     3.3330 ha         1 V7H       0.112500
     44 H23          4.7400     4.7790     8.1990 ha         1 V7H       0.124000
     45 H2           6.5620    -1.6770     6.4030 ha         1 V7H       0.091000
     46 H3           8.6450    -2.5260     5.4020 ha         1 V7H       0.099000
     47 H311         1.5530    -0.5130     4.4530 h1         1 V7H       0.030700
     48 H312         3.0850    -0.5130     3.5680 h1         1 V7H       0.030700
     49 H211         4.6530     2.4860     8.7440 h1         1 V7H       0.020700
     50 H212         3.7260     1.3490     7.7550 h1         1 V7H       0.020700
     51 H191         6.4240     0.8280     8.9860 h1         1 V7H       0.007700
     52 H192         5.4980    -0.3080     7.9960 h1         1 V7H       0.007700
     53 H30          2.0290     2.1400     3.5770 hn         1 V7H       0.177500
     54 H151        12.6380    -3.3130     4.8300 hc         1 V7H       0.012200
     55 H152        13.7820    -3.2480     6.1780 hc         1 V7H       0.012200
     56 H111        11.9780     0.9880     5.4160 h1         1 V7H       0.017200
     57 H112        13.0810     0.8990     6.8040 h1         1 V7H       0.017200
     58 H12         12.4170    -1.4600     7.1760 h1         1 V7H       0.020700
     59 H141        13.1670    -0.9630     4.2690 hc         1 V7H       0.026700
     60 H142        14.3100    -0.8980     5.6170 hc         1 V7H       0.026700
     61 H20          6.4070     2.3340     7.1380 hn         1 V7H       0.309800
     62 C15         13.5570    -2.8650     5.1900 c3         1 V7H      -0.134400
     63 C7           8.7390     1.8560     8.4400 c          1 V7H       0.991200
@<TRIPOS>BOND
     1     1     3 ar  
     2     1     4 ar  
     3     1    36 1   
     4     2     5 ar  
     5     2     6 ar  
     6     2    39 1   
     7     3     7 ar  
     8     3    37 1   
     9     4     8 ar  
    10     4    38 1   
    11     5     9 ar  
    12     5    40 1   
    13     6    12 ar  
    14     6    41 1   
    15     7    14 ar  
    16     7    42 1   
    17     8    14 ar  
    18     8    43 1   
    19     9    15 ar  
    20     9    44 1   
    21    10    11 ar  
    22    10    16 ar  
    23    10    45 1   
    24    11    17 ar  
    25    11    46 1   
    26    12    15 ar  
    27    12    19 1   
    28    13    16 ar  
    29    13    18 ar  
    30    13    63 1   
    31    14    23 1   
    32    15    24 1   
    33    16    25 1   
    34    17    18 ar  
    35    17    35 1   
    36    18    34 1   
    37    19    27 1   
    38    19    31 2   
    39    20    30 1   
    40    20    33 1   
    41    20    62 1   
    42    21    22 1   
    43    21    34 1   
    44    21    56 1   
    45    21    57 1   
    46    22    26 1   
    47    22    35 1   
    48    22    58 1   
    49    23    27 1   
    50    23    47 1   
    51    23    48 1   
    52    24    28 1   
    53    24    49 1   
    54    24    50 1   
    55    25    28 1   
    56    25    51 1   
    57    25    52 1   
    58    26    59 1   
    59    26    60 1   
    60    26    62 1   
    61    27    53 1   
    62    28    61 1   
    63    29    63 1   
    64    32    63 1   
    65    54    62 1   
    66    55    62 1   
@<TRIPOS>SUBSTRUCTURE
     1 V7H         1 TEMP              0 ****  ****    0 ROOT
