@<TRIPOS>MOLECULE
molecule
   29    31     1     0     0
SMALL
bcc


@<TRIPOS>ATOM
      1 N            0.0000     0.0000     0.0000 nc         1 V7V      -0.419000
      2 O            2.5120     0.0400    -9.7620 o          1 V7V      -0.834300
      3 C1           2.1720     0.0220    -7.3380 ca         1 V7V      -0.106600
      4 C10          1.6420    -0.0010    -2.4680 ca         1 V7V      -0.081000
      5 C11          0.5090    -0.0010    -5.1140 ca         1 V7V      -0.131000
      6 C12         -0.0370    -0.0000    -6.3830 ca         1 V7V      -0.164000
      7 C13          0.7840     0.0110    -7.4940 ca         1 V7V      -0.077000
      8 C2           2.7270     0.0150    -6.0600 ca         1 V7V      -0.084000
      9 C3           1.8940     0.0040    -4.9470 cp         1 V7V      -0.098000
     10 C4           2.4760     0.0040    -3.5810 cp         1 V7V       0.004000
     11 C5           3.8600     0.0090    -3.4130 ca         1 V7V      -0.102000
     12 C6           4.4050     0.0100    -2.1440 ca         1 V7V      -0.130000
     13 C7           3.5830     0.0040    -1.0340 ca         1 V7V      -0.139000
     14 C8           2.1960    -0.0010    -1.1900 ca         1 V7V      -0.157500
     15 C9           1.3160     0.0000     0.0000 cd         1 V7V       0.497000
     16 N1          -0.4500     0.0020     1.2020 nc         1 V7V      -0.012000
     17 N2           0.5250     0.0020     2.0460 nd         1 V7V      -0.237800
     18 N3           1.7130     0.0000     1.2970 na         1 V7V      -0.195400
     19 O1           4.2570     0.0380    -8.3900 o          1 V7V      -0.834300
     20 H5           0.5660    -0.0050    -2.5950 ha         1 V7V       0.162000
     21 H6          -0.1400    -0.0100    -4.2470 ha         1 V7V       0.113000
     22 H7          -1.1130    -0.0060    -6.5080 ha         1 V7V       0.112000
     23 H8           0.3510     0.0110    -8.4870 ha         1 V7V       0.158000
     24 H            3.8030     0.0190    -5.9340 ha         1 V7V       0.146000
     25 H1           4.5100     0.0130    -4.2790 ha         1 V7V       0.159000
     26 H2           5.4810     0.0140    -2.0180 ha         1 V7V       0.129000
     27 H3           4.0150     0.0040    -0.0410 ha         1 V7V       0.107000
     28 H4           2.6510    -0.0000     1.6450 hn         1 V7V       0.334700
     29 C            3.0510     0.0330    -8.5270 c          1 V7V       0.883200
@<TRIPOS>BOND
     1    11    12 ar
     2    11    10 ar
     3    12    13 ar
     4    19    29 1
     5     2    29 1
     6    29     3 1
     7     7     3 ar
     8     7     6 ar
     9     3     8 ar
    10     6     5 ar
    11     8     9 ar
    12     5     9 ar
    13     9    10 1
    14    10     4 ar
    15    13    14 ar
    16     4    14 ar
    17    14    15 1
    18    15     1 2
    19    15    18 1
    20     1    16 1
    21    18    17 1
    22    16    17 2
    23     4    20 1
    24     5    21 1
    25     6    22 1
    26     7    23 1
    27     8    24 1
    28    11    25 1
    29    12    26 1
    30    13    27 1
    31    18    28 1
@<TRIPOS>SUBSTRUCTURE
     1 V7V         1 TEMP              0 ****  ****    0 ROOT
