@<TRIPOS>MOLECULE
V8W
   21    21     1     0     0
SMALL
bcc


@<TRIPOS>ATOM
      1 N7           0.0000     0.0000     0.0000 n7         1 V8W      -0.567200
      2 C3           1.4860     0.0000     0.0000 c3         1 V8W       0.082500
      3 C1           2.0200    -1.2570    -0.6910 c3         1 V8W       0.185300
      4 N2           1.6730    -1.2160    -2.1180 nz         1 V8W      -0.004600
      5 C4           1.8740     0.0000     1.4940 c3         1 V8W      -0.009400
      6 C5           0.6570     0.6010     2.2250 c3         1 V8W      -0.020400
      7 C6          -0.3650     0.9150     1.1120 c3         1 V8W       0.155800
      8 OXT          1.4350    -2.4140    -0.0900 oh         1 V8W      -0.493800
      9 H3           1.8610     0.8930    -0.4850 h1         1 V8W       0.030700
     10 H61C        -0.2720     1.9470     0.7960 h1         1 V8W       0.030200
     11 H62C        -1.3710     0.7070     1.4550 h1         1 V8W       0.030200
     12 H41C         2.0540    -1.0130     1.8350 hc         1 V8W       0.037200
     13 H42C         2.7500     0.6180     1.6540 hc         1 V8W       0.037200
     14 H21N         2.4880    -1.4100    -2.6650 hn         1 V8W       0.237800
     15 H22N         1.3230    -0.3070    -2.3500 hn         1 V8W       0.237800
     16 H51C         0.2450    -0.1190     2.9210 hc         1 V8W       0.039200
     17 H52C         0.9410     1.5110     2.7400 hc         1 V8W       0.039200
     18 HOXT         1.9100    -3.1830    -0.3620 ho         1 V8W       0.408000
     19 H1C          3.0970    -1.2990    -0.5820 hx         1 V8W       0.067700
     20 H2          -0.3340     0.3770    -0.8650 hn         1 V8W       0.237800
     21 H23          0.9650    -1.8970    -2.3090 hn         1 V8W       0.237800
@<TRIPOS>BOND
     1     1     2 1   
     2     1     7 1   
     3     1    20 1   
     4     2     3 1   
     5     2     5 1   
     6     2     9 1   
     7     3     4 1   
     8     3     8 1   
     9     3    19 1   
    10     4    14 1   
    11     4    15 1   
    12     4    21 1   
    13     5     6 1   
    14     5    12 1   
    15     5    13 1   
    16     6     7 1   
    17     6    16 1   
    18     6    17 1   
    19     7    10 1   
    20     7    11 1   
    21     8    18 1   
@<TRIPOS>SUBSTRUCTURE
     1 V8W         1 TEMP              0 ****  ****    0 ROOT
