@<TRIPOS>MOLECULE
V90
   50    51     1     0     0
SMALL
bcc


@<TRIPOS>ATOM
      1 F18          0.0000     0.0000     0.0000 f          1 V90      -0.084900
      2 C5           1.3500     0.0000     0.0000 ca         1 V90       0.131900
      3 C6           2.0460     0.0000     1.2020 ca         1 V90       0.052900
      4 S12          1.1670    -0.0020     2.7290 ss         1 V90      -0.297000
      5 C13          0.9640    -1.7700     3.0820 c3         1 V90       0.089700
      6 C14          0.2060    -1.9430     4.4000 c3         1 V90       0.247400
      7 O15          0.0460    -3.3360     4.6770 oh         1 V90      -0.588800
      8 C1           3.4370    -0.0010     1.2000 ca         1 V90       0.148900
      9 F17          4.1150    -0.0020     2.3690 f          1 V90      -0.076900
     10 C4           2.0460    -0.0050    -1.2020 ca         1 V90       0.110600
     11 C3           3.4350    -0.0050    -1.2000 ca         1 V90      -0.206500
     12 S8           4.3180    -0.0110    -2.7250 sy         1 V90       0.950200
     13 O10          3.4370    -0.5600    -3.6960 o          1 V90      -0.475300
     14 N11          4.5630     1.5690    -3.1550 nz         1 V90      -0.190500
     15 O9           5.6000    -0.5550    -2.4450 o          1 V90      -0.475300
     16 C2           4.1280     0.0000    -0.0010 ca         1 V90       0.168900
     17 F16          5.4790    -0.0010    -0.0010 f          1 V90      -0.086900
     18 N7           1.3490    -0.0110    -2.4150 nu         1 V90      -0.471600
     19 C19          1.0840     1.3590    -2.8770 c3         1 V90       0.087500
     20 C26          0.9480     1.3670    -4.4000 c3         1 V90      -0.053900
     21 C25          1.0690     2.8020    -4.9150 c3         1 V90      -0.044900
     22 C24          2.2290     3.5030    -4.2040 c3         1 V90      -0.032400
     23 C23          1.6800     4.6170    -3.3110 c3         1 V90      -0.032400
     24 C22          1.0670     4.0030    -2.0500 c3         1 V90      -0.032400
     25 C21         -0.2920     3.3870    -2.3920 c3         1 V90      -0.044900
     26 C20         -0.2150     1.8660    -2.2460 c3         1 V90      -0.053900
     27 H1           1.9380    -2.2360     3.1620 h1         1 V90       0.049200
     28 H2           0.4050    -2.2360     2.2800 h1         1 V90       0.049200
     29 H3          -0.7690    -1.4770     4.3200 h1         1 V90       0.002700
     30 H4           0.7640    -1.4770     5.2020 h1         1 V90       0.002700
     31 H5          -0.4210    -3.4440     5.4890 ho         1 V90       0.409000
     32 H6           5.5460     1.7510    -3.2080 hn         1 V90       0.331133
     33 H7           4.1490     2.1690    -2.4700 hn         1 V90       0.331133
     34 H8           0.6940    -0.7410    -2.6120 hn         1 V90       0.332800
     35 H9           1.9020     2.0070    -2.5860 h1         1 V90       0.031700
     36 H10         -0.0200     0.9660    -4.6770 hc         1 V90       0.039200
     37 H11          1.7330     0.7610    -4.8350 hc         1 V90       0.039200
     38 H12          0.1480     3.3360    -4.7150 hc         1 V90       0.042700
     39 H13          1.2590     2.7860    -5.9820 hc         1 V90       0.042700
     40 H14          2.7650     2.7850    -3.5960 hc         1 V90      -0.000550
     41 H15          2.8970     3.9300    -4.9420 hc         1 V90      -0.000550
     42 H16          0.9200     5.1690    -3.8500 hc         1 V90       0.032200
     43 H17          2.4870     5.2830    -3.0310 hc         1 V90       0.032200
     44 H18          1.7250     3.2320    -1.6680 hc         1 V90      -0.000550
     45 H19          0.9330     4.7750    -1.3020 hc         1 V90      -0.000550
     46 H20         -0.5530     3.6380    -3.4130 hc         1 V90       0.042700
     47 H21         -1.0430     3.7760    -1.7160 hc         1 V90       0.042700
     48 H22         -0.2300     1.6050    -1.1950 hc         1 V90       0.039200
     49 H23         -1.0600     1.4130    -2.7490 hc         1 V90       0.039200
     50 H113         4.1530     1.7380    -4.0520 hn         1 V90       0.331133
@<TRIPOS>BOND
     1     1     2 1   
     2     2     3 ar  
     3     2    10 ar  
     4     3     4 1   
     5     3     8 ar  
     6     4     5 1   
     7     5     6 1   
     8     5    27 1   
     9     5    28 1   
    10     6     7 1   
    11     6    29 1   
    12     6    30 1   
    13     7    31 1   
    14     8     9 1   
    15     8    16 ar  
    16    10    11 ar  
    17    10    18 1   
    18    11    12 1   
    19    11    16 ar  
    20    12    13 2   
    21    12    14 1   
    22    12    15 2   
    23    14    32 1   
    24    14    33 1   
    25    14    50 1   
    26    16    17 1   
    27    18    19 1   
    28    18    34 1   
    29    19    20 1   
    30    19    26 1   
    31    19    35 1   
    32    20    21 1   
    33    20    36 1   
    34    20    37 1   
    35    21    22 1   
    36    21    38 1   
    37    21    39 1   
    38    22    23 1   
    39    22    40 1   
    40    22    41 1   
    41    23    24 1   
    42    23    42 1   
    43    23    43 1   
    44    24    25 1   
    45    24    44 1   
    46    24    45 1   
    47    25    26 1   
    48    25    46 1   
    49    25    47 1   
    50    26    48 1   
    51    26    49 1   
@<TRIPOS>SUBSTRUCTURE
     1 V90         1 TEMP              0 ****  ****    0 ROOT
