@<TRIPOS>MOLECULE
molecule
   50    51     1     0     0
SMALL
bcc


@<TRIPOS>ATOM
      1 F18          0.0000     0.0000     0.0000 f          1 V90      -0.085900
      2 C5           1.3500     0.0000     0.0000 ca         1 V90       0.138900
      3 C6           2.0460     0.0000     1.2020 ca         1 V90       0.023900
      4 S12          1.1670    -0.0020     2.7290 ss         1 V90      -0.219000
      5 C13          0.9640    -1.7700     3.0820 c3         1 V90       0.001700
      6 C14          0.2060    -1.9430     4.4000 c3         1 V90       0.158400
      7 O15          0.0460    -3.3360     4.6770 oh         1 V90      -0.603800
      8 C1           3.4370    -0.0010     1.2000 ca         1 V90       0.151900
      9 F17          4.1150    -0.0020     2.3690 f          1 V90      -0.074900
     10 C4           2.0460    -0.0050    -1.2020 ca         1 V90       0.203600
     11 C3           3.4350    -0.0050    -1.2000 ca         1 V90      -0.339500
     12 S8           4.3180    -0.0110    -2.7250 sy         1 V90       1.258200
     13 O10          3.4370    -0.5600    -3.6960 o          1 V90      -0.498300
     14 N11          4.5630     1.5690    -3.1550 nz         1 V90      -0.820500
     15 O9           5.6000    -0.5550    -2.4450 o          1 V90      -0.498300
     16 C2           4.1280     0.0000    -0.0010 ca         1 V90       0.166900
     17 F16          5.4790    -0.0010    -0.0010 f          1 V90      -0.090900
     18 N7           1.3490    -0.0110    -2.4150 nu         1 V90      -0.820600
     19 C19          1.0840     1.3590    -2.8770 c3         1 V90       0.192500
     20 C26          0.9480     1.3670    -4.4000 c3         1 V90      -0.103900
     21 C25          1.0690     2.8020    -4.9150 c3         1 V90      -0.090400
     22 C24          2.2290     3.5030    -4.2040 c3         1 V90      -0.085900
     23 C23          1.6800     4.6170    -3.3110 c3         1 V90      -0.087400
     24 C22          1.0670     4.0030    -2.0500 c3         1 V90      -0.085900
     25 C21         -0.2920     3.3870    -2.3920 c3         1 V90      -0.090400
     26 C20         -0.2150     1.8660    -2.2460 c3         1 V90      -0.103900
     27 H1           1.9380    -2.2360     3.1620 h1         1 V90       0.081200
     28 H2           0.4050    -2.2360     2.2800 h1         1 V90       0.081200
     29 H3          -0.7690    -1.4770     4.3200 h1         1 V90       0.038700
     30 H4           0.7640    -1.4770     5.2020 h1         1 V90       0.038700
     31 H5          -0.4210    -3.4440     5.4890 ho         1 V90       0.422000
     32 H6           5.5460     1.7510    -3.2080 hn         1 V90       0.496800
     33 H7           4.1490     2.1690    -2.4700 hn         1 V90       0.496800
     34 H8           0.6940    -0.7410    -2.6120 hn         1 V90       0.468800
     35 H9           1.9020     2.0070    -2.5860 h1         1 V90       0.034700
     36 H10         -0.0200     0.9660    -4.6770 hc         1 V90       0.065950
     37 H11          1.7330     0.7610    -4.8350 hc         1 V90       0.065950
     38 H12          0.1480     3.3360    -4.7150 hc         1 V90       0.067450
     39 H13          1.2590     2.7860    -5.9820 hc         1 V90       0.067450
     40 H14          2.7650     2.7850    -3.5960 hc         1 V90       0.022200
     41 H15          2.8970     3.9300    -4.9420 hc         1 V90       0.022200
     42 H16          0.9200     5.1690    -3.8500 hc         1 V90       0.062200
     43 H17          2.4870     5.2830    -3.0310 hc         1 V90       0.062200
     44 H18          1.7250     3.2320    -1.6680 hc         1 V90       0.022200
     45 H19          0.9330     4.7750    -1.3020 hc         1 V90       0.022200
     46 H20         -0.5530     3.6380    -3.4130 hc         1 V90       0.067450
     47 H21         -1.0430     3.7760    -1.7160 hc         1 V90       0.067450
     48 H22         -0.2300     1.6050    -1.1950 hc         1 V90       0.065950
     49 H23         -1.0600     1.4130    -2.7490 hc         1 V90       0.065950
     50 H113         4.1530     1.7380    -4.0520 hn         1 V90       0.496800
@<TRIPOS>BOND
     1    24    23 1
     2    24    25 1
     3    23    22 1
     4    22    21 1
     5     7     6 1
     6    25    26 1
     7     6     5 1
     8    21    20 1
     9    26    19 1
    10     5     4 1
    11    20    19 1
    12    19    18 1
    13     1     2 1
    14     4     3 1
    15     2     3 ar
    16     2    10 ar
    17    18    10 1
    18     3     8 ar
    19    10    11 ar
    20     8     9 1
    21     8    16 ar
    22    11    16 ar
    23    11    12 1
    24    14    12 1
    25    16    17 1
    26    13    12 2
    27    12    15 2
    28     5    27 1
    29     5    28 1
    30     6    29 1
    31     6    30 1
    32     7    31 1
    33    14    32 1
    34    14    33 1
    35    18    34 1
    36    19    35 1
    37    20    36 1
    38    20    37 1
    39    21    38 1
    40    21    39 1
    41    22    40 1
    42    22    41 1
    43    23    42 1
    44    23    43 1
    45    24    44 1
    46    24    45 1
    47    25    46 1
    48    25    47 1
    49    26    48 1
    50    26    49 1
    51    50    14 1
@<TRIPOS>SUBSTRUCTURE
     1 V90         1 TEMP              0 ****  ****    0 ROOT
