@<TRIPOS>MOLECULE
molecule
   79    83     1     0     0
SMALL
bcc


@<TRIPOS>ATOM
      1 CAK          0.0000     0.0000     0.0000 c3         1 V98      -0.074900
      2 CAL          1.5300     0.0000     0.0000 c3         1 V98       0.159300
      3 NAM          2.0200     0.0000     1.3850 n7         1 V98      -0.821200
      4 CAN          1.5870     1.2060     2.1020 c3         1 V98       0.159300
      5 CAO          0.0570     1.2420     2.1630 c3         1 V98      -0.074900
      6 CAJ         -0.5060     1.2410     0.7390 c3         1 V98      -0.093700
      7 CAI         -2.0340     1.2160     0.7960 c3         1 V98       0.242800
      8 NAH         -2.5740     1.2750    -0.5660 n3         1 V98      -0.808500
      9 CAA         -2.7610     0.0410    -1.3340 c3         1 V98       0.265100
     10 CAB         -4.0690    -0.5990    -0.9470 ca         1 V98      -0.118300
     11 CAC         -5.2060    -0.3560    -1.6960 ca         1 V98      -0.117500
     12 CAD         -6.4060    -0.9420    -1.3410 ca         1 V98      -0.128500
     13 CAE         -6.4700    -1.7700    -0.2360 ca         1 V98      -0.124000
     14 CAF         -5.3340    -2.0120     0.5140 ca         1 V98      -0.128500
     15 CAG         -4.1320    -1.4310     0.1550 ca         1 V98      -0.117500
     16 SAP         -2.9720     2.7350    -1.2370 sy         1 V98       1.418200
     17 OAQ         -2.1880     3.7120    -0.5660 o          1 V98      -0.630800
     18 OAR         -2.9460     2.5510    -2.6460 o          1 V98      -0.630800
     19 CAS         -4.6500     3.0650    -0.8090 ca         1 V98      -0.260500
     20 CAX         -4.9480     3.6870     0.3880 ca         1 V98      -0.050000
     21 CAW         -6.2640     3.9470     0.7230 ca         1 V98      -0.052000
     22 CAT         -5.6660     2.7080    -1.6750 ca         1 V98      -0.050000
     23 CAU         -6.9820     2.9660    -1.3400 ca         1 V98      -0.052000
     24 CAV         -7.2810     3.5830    -0.1390 ca         1 V98      -0.265500
     25 SAY         -8.9580     3.9140     0.2880 sy         1 V98       1.419200
     26 OAZ         -8.9400     5.0600     1.1290 o          1 V98      -0.632300
     27 OBA         -9.7000     3.8500    -0.9220 o          1 V98      -0.632300
     28 NBB         -9.4820     2.6540     1.2260 n3         1 V98      -0.805500
     29 CBE         -9.4010     2.7440     2.6860 c3         1 V98       0.237500
     30 CBF         -8.6490     1.5210     3.2500 c3         1 V98      -0.104900
     31 CBG         -9.3890     1.1960     4.5710 c3         1 V98      -0.086400
     32 CBH        -10.8700     1.4680     4.2090 c3         1 V98      -0.086400
     33 CBI        -10.8130     2.7100     3.2960 c3         1 V98      -0.104900
     34 CBC        -10.0270     1.4490     0.5960 c3         1 V98       0.287100
     35 CBD        -11.5210     1.5880     0.4550 ca         1 V98      -0.123300
     36 CBJ        -12.3610     1.0160     1.3910 ca         1 V98      -0.108500
     37 CBK        -13.7310     1.1430     1.2630 ca         1 V98      -0.127500
     38 CBL        -14.2630     1.8440     0.1940 ca         1 V98       0.035400
     39 Cl         -15.9830     2.0040     0.0310 cl         1 V98      -0.109400
     40 CBM        -13.4220     2.4160    -0.7440 ca         1 V98      -0.127500
     41 CBN        -12.0510     2.2930    -0.6100 ca         1 V98      -0.108500
     42 H1          -0.3600     0.0170    -1.0220 hc         1 V98       0.048950
     43 H2          -0.3600    -0.8900     0.5010 hc         1 V98       0.048950
     44 H3           1.8900    -0.8860    -0.5090 h1         1 V98       0.034200
     45 H4           1.8900     0.8860    -0.5090 h1         1 V98       0.034200
     46 H5           3.0190    -0.0480     1.3850 hn         1 V98       0.354800
     47 H7           1.9470     2.0840     1.5780 h1         1 V98       0.034200
     48 H8           1.9870     1.1900     3.1080 h1         1 V98       0.034200
     49 H9          -0.3030     0.3690     2.6940 hc         1 V98       0.048950
     50 H10         -0.2620     2.1410     2.6770 hc         1 V98       0.048950
     51 H11         -0.1730     2.1310     0.2190 hc         1 V98       0.070700
     52 H12         -2.3630     0.3020     1.2750 h1         1 V98       0.054200
     53 H13         -2.3890     2.0690     1.3620 h1         1 V98       0.054200
     54 H14         -2.7710     0.2720    -2.3920 h1         1 V98       0.077700
     55 H15         -1.9480    -0.6430    -1.1220 h1         1 V98       0.077700
     56 H16         -5.1550     0.2930    -2.5620 ha         1 V98       0.133500
     57 H17         -7.2960    -0.7530    -1.9280 ha         1 V98       0.131500
     58 H18         -7.4120    -2.2270     0.0440 ha         1 V98       0.130000
     59 H19         -5.3850    -2.6630     1.3790 ha         1 V98       0.131500
     60 H20         -3.2420    -1.6210     0.7420 ha         1 V98       0.133500
     61 H21         -4.1510     3.9720     1.0640 ha         1 V98       0.154000
     62 H22         -6.4980     4.4320     1.6630 ha         1 V98       0.153000
     63 H23         -5.4320     2.2250    -2.6160 ha         1 V98       0.154000
     64 H24         -7.7790     2.6840    -2.0170 ha         1 V98       0.153000
     65 H25         -8.8940     3.6550     2.9790 h1         1 V98       0.083700
     66 H26         -7.6140     1.7730     3.4500 hc         1 V98       0.057700
     67 H27         -8.7170     0.6860     2.5640 hc         1 V98       0.057700
     68 H28         -9.2470     0.1570     4.8430 hc         1 V98       0.047700
     69 H29         -9.0620     1.8560     5.3650 hc         1 V98       0.047700
     70 H30        -11.4430     1.6820     5.1030 hc         1 V98       0.047700
     71 H31        -11.2890     0.6250     3.6740 hc         1 V98       0.047700
     72 H32        -10.9850     3.6060     3.8800 hc         1 V98       0.057700
     73 H33        -11.5530     2.6250     2.5100 hc         1 V98       0.057700
     74 H34         -9.5820     1.3220    -0.3830 h1         1 V98       0.059200
     75 H35         -9.8010     0.5870     1.2110 h1         1 V98       0.059200
     76 H36        -11.9450     0.4670     2.2280 ha         1 V98       0.159500
     77 H37        -14.3880     0.6940     1.9970 ha         1 V98       0.145500
     78 H38        -13.8380     2.9660    -1.5790 ha         1 V98       0.145500
     79 H39        -11.3930     2.7410    -1.3440 ha         1 V98       0.159500
@<TRIPOS>BOND
     1    14    13 ar
     2    14    15 ar
     3    13    12 ar
     4    15    10 ar
     5    17    16 2
     6    31    32 1
     7    31    30 1
     8    12    11 ar
     9    18    16 2
    10    10    11 ar
    11    10     9 1
    12    16     8 1
    13    16    19 1
    14    32    33 1
    15     8     9 1
    16     8     7 1
    17    30    29 1
    18    22    19 ar
    19    22    23 ar
    20    19    20 ar
    21     5     4 1
    22     5     6 1
    23    29    33 1
    24    29    28 1
    25     4     3 1
    26    23    24 ar
    27    20    21 ar
    28     7     6 1
    29     6     1 1
    30    34    28 1
    31    34    35 1
    32    24    21 ar
    33    24    25 1
    34    28    25 1
    35     3     2 1
    36    36    35 ar
    37    36    37 ar
    38    35    41 ar
    39     1     2 1
    40    25    27 2
    41    25    26 2
    42    37    38 ar
    43    41    40 ar
    44    38    40 ar
    45    38    39 1
    46     1    42 1
    47     1    43 1
    48     2    44 1
    49     2    45 1
    50     3    46 1
    51     4    47 1
    52     4    48 1
    53     5    49 1
    54     5    50 1
    55     6    51 1
    56     7    52 1
    57     7    53 1
    58     9    54 1
    59     9    55 1
    60    11    56 1
    61    12    57 1
    62    13    58 1
    63    14    59 1
    64    15    60 1
    65    20    61 1
    66    21    62 1
    67    22    63 1
    68    23    64 1
    69    29    65 1
    70    30    66 1
    71    30    67 1
    72    31    68 1
    73    31    69 1
    74    32    70 1
    75    32    71 1
    76    33    72 1
    77    33    73 1
    78    34    74 1
    79    34    75 1
    80    36    76 1
    81    37    77 1
    82    40    78 1
    83    41    79 1
@<TRIPOS>SUBSTRUCTURE
     1 V98         1 TEMP              0 ****  ****    0 ROOT
