@<TRIPOS>MOLECULE
molecule
   22    22     1     0     0
SMALL
bcc


@<TRIPOS>ATOM
      1 CG           0.0000     0.0000     0.0000 ca         1 V9C      -0.125000
      2 CD1          1.3830     0.0000     0.0000 ca         1 V9C      -0.056300
      3 CD2         -0.6910    -0.0000     1.1980 ca         1 V9C      -0.133000
      4 CE1          2.0740     0.0000     1.1970 ca         1 V9C      -0.125000
      5 CE2          0.0010    -0.0070     2.3940 ca         1 V9C      -0.148000
      6 CZ           1.3840     0.0000     2.3940 ca         1 V9C      -0.133000
      7 C10          2.1350    -0.0010    -1.3060 c3         1 V9C      -0.063100
      8 C11          2.3900     1.4420    -1.7490 c3         1 V9C       0.136000
      9 N1           3.1220     1.4410    -3.0170 ns         1 V9C      -0.642900
     10 C2           3.4580     2.6090    -3.6020 c          1 V9C       0.992600
     11 O3           3.1550     3.6600    -3.0750 o          1 V9C      -0.873300
     12 O1           4.1310     2.6080    -4.7680 o          1 V9C      -0.873300
     13 H1          -0.5420     0.0020    -0.9380 ha         1 V9C       0.133000
     14 H2          -1.7750    -0.0030     1.1980 ha         1 V9C       0.118000
     15 H3           3.1570     0.0030     1.1960 ha         1 V9C       0.133000
     16 H4          -0.5400    -0.0070     3.3330 ha         1 V9C       0.114000
     17 H5           1.9260    -0.0020     3.3320 ha         1 V9C       0.118000
     18 H6           1.5480    -0.5120    -2.0600 hc         1 V9C       0.043700
     19 H7           3.0810    -0.5120    -1.1770 hc         1 V9C       0.043700
     20 H8           1.4430     1.9530    -1.8780 h1         1 V9C       0.031700
     21 H9           2.9760     1.9530    -0.9940 h1         1 V9C       0.031700
     22 H10          3.3920     0.5740    -3.4380 hn         1 V9C       0.278500
@<TRIPOS>BOND
     1     8     9 1
     2     8     7 1
     3     9    10 1
     4     7     2 1
     5    10    11 1
     6     2     1 ar
     7     2     4 ar
     8     1     3 ar
     9     4     6 ar
    10     3     5 ar
    11     6     5 ar
    12    10    12 1
    13     1    13 1
    14     3    14 1
    15     4    15 1
    16     5    16 1
    17     6    17 1
    18     7    18 1
    19     7    19 1
    20     8    20 1
    21     8    21 1
    22     9    22 1
@<TRIPOS>SUBSTRUCTURE
     1 V9C         1 TEMP              0 ****  ****    0 ROOT
