@<TRIPOS>MOLECULE
VA
   60    59     1     0     0
SMALL
bcc


@<TRIPOS>ATOM
      1 O21        -0.2290   -1.0370    0.1180 o         1 VA      -0.546000
      2 C20         0.9010   -0.5550    0.2210 c         1 VA       0.632100
      3 C22         1.6770   -0.2630    1.4570 c3        1 VA      -0.150100
      4 O19         1.5750   -0.2290   -0.9230 os        1 VA      -0.444900
      5 C1          0.8940   -0.4800   -2.1650 c3        1 VA       0.139400
      6 C2          1.8430   -0.0370   -3.2620 c3        1 VA      -0.085400
      7 C3          1.2130   -0.2630   -4.6190 c3        1 VA      -0.078400
      8 C4          2.1440    0.1740   -5.7300 c3        1 VA      -0.078400
      9 C5          1.5170   -0.0500   -7.0890 c3        1 VA      -0.079400
     10 C6          2.4470    0.3880   -8.2010 c3        1 VA      -0.079400
     11 C7          1.8210    0.1640   -9.5600 c3        1 VA      -0.079400
     12 C8          2.7500    0.6040  -10.6720 c3        1 VA      -0.079400
     13 C9          2.1230    0.3790  -12.0310 c3        1 VA      -0.077400
     14 C10         3.0530    0.8210  -13.1420 c3        1 VA      -0.049200
     15 C11         2.4640    0.6130  -14.4850 c2        1 VA      -0.174200
     16 C12         3.0750    0.9540  -15.6250 c2        1 VA      -0.173200
     17 C13         4.4150    1.5850  -15.6840 c3        1 VA      -0.049200
     18 C14         4.8740    1.8290  -17.1060 c3        1 VA      -0.077400
     19 C15         6.2430    2.4730  -17.1360 c3        1 VA      -0.079400
     20 C16         6.7040    2.7180  -18.5560 c3        1 VA      -0.079400
     21 C17         8.0740    3.3620  -18.5880 c3        1 VA      -0.080400
     22 C18         8.5370    3.6080  -20.0010 c3        1 VA      -0.092100
     23 H221        2.6770    0.1700    1.2110 hc        1 VA       0.075700
     24 H222        1.1010    0.4630    2.0820 hc        1 VA       0.075700
     25 H223        1.8130   -1.2110    2.0320 hc        1 VA       0.075700
     26 H11A        0.6580   -1.5740   -2.2330 h1        1 VA       0.051700
     27 H12A       -0.0620    0.1040   -2.1780 h1        1 VA       0.051700
     28 H21         2.0920    1.0480   -3.1250 hc        1 VA       0.053700
     29 H22         2.8030   -0.6100   -3.1800 hc        1 VA       0.053700
     30 H31         0.9630   -1.3490   -4.7430 hc        1 VA       0.042700
     31 H32         0.2500    0.3090   -4.6880 hc        1 VA       0.042700
     32 H41         2.3940    1.2610   -5.6050 hc        1 VA       0.041700
     33 H42         3.1070   -0.3970   -5.6600 hc        1 VA       0.041700
     34 H51         0.5540    0.5210   -7.1580 hc        1 VA       0.040700
     35 H52         1.2680   -1.1360   -7.2140 hc        1 VA       0.040700
     36 H61         2.6960    1.4750   -8.0760 hc        1 VA       0.039700
     37 H62         3.4110   -0.1820   -8.1320 hc        1 VA       0.039700
     38 H71         0.8570    0.7330   -9.6290 hc        1 VA       0.040700
     39 H72         1.5730   -0.9230   -9.6850 hc        1 VA       0.040700
     40 H81         3.7140    0.0350  -10.6030 hc        1 VA       0.039700
     41 H82         2.9970    1.6910  -10.5470 hc        1 VA       0.039700
     42 H91         1.8770   -0.7080  -12.1570 hc        1 VA       0.041700
     43 H92         1.1580    0.9470  -12.1000 hc        1 VA       0.041700
     44 H101        3.3070    1.9090  -13.0090 hc        1 VA       0.047700
     45 H102        4.0230    0.2550  -13.0680 hc        1 VA       0.047700
     46 H11         1.4660    0.1460  -14.5080 ha        1 VA       0.122000
     47 H12         2.5850    0.7710  -16.5950 ha        1 VA       0.122000
     48 H131        5.1610    0.9290  -15.1550 hc        1 VA       0.047700
     49 H132        4.3920    2.5610  -15.1230 hc        1 VA       0.047700
     50 H141        4.9030    0.8560  -17.6640 hc        1 VA       0.041700
     51 H142        4.1350    2.4900  -17.6320 hc        1 VA       0.041700
     52 H151        6.9810    1.8120  -16.6100 hc        1 VA       0.039700
     53 H152        6.2140    3.4460  -16.5770 hc        1 VA       0.039700
     54 H161        5.9660    3.3800  -19.0830 hc        1 VA       0.039700
     55 H162        6.7340    1.7460  -19.1160 hc        1 VA       0.039700
     56 H171        8.8100    2.7000  -18.0600 hc        1 VA       0.038700
     57 H172        8.0430    4.3340  -18.0270 hc        1 VA       0.038700
     58 H181        8.5980    2.6490  -20.5690 hc        1 VA       0.032700
     59 H182        9.5480    4.0830  -20.0010 hc        1 VA       0.032700
     60 H183        7.8290    4.2870  -20.5350 hc        1 VA       0.032700
@<TRIPOS>BOND
     1    1    2 2   
     2    2    3 1   
     3    2    4 1   
     4    3   23 1   
     5    3   24 1   
     6    3   25 1   
     7    4    5 1   
     8    5    6 1   
     9    5   26 1   
    10    5   27 1   
    11    6    7 1   
    12    6   28 1   
    13    6   29 1   
    14    7    8 1   
    15    7   30 1   
    16    7   31 1   
    17    8    9 1   
    18    8   32 1   
    19    8   33 1   
    20    9   10 1   
    21    9   34 1   
    22    9   35 1   
    23   10   11 1   
    24   10   36 1   
    25   10   37 1   
    26   11   12 1   
    27   11   38 1   
    28   11   39 1   
    29   12   13 1   
    30   12   40 1   
    31   12   41 1   
    32   13   14 1   
    33   13   42 1   
    34   13   43 1   
    35   14   15 1   
    36   14   44 1   
    37   14   45 1   
    38   15   16 2   
    39   15   46 1   
    40   16   17 1   
    41   16   47 1   
    42   17   18 1   
    43   17   48 1   
    44   17   49 1   
    45   18   19 1   
    46   18   50 1   
    47   18   51 1   
    48   19   20 1   
    49   19   52 1   
    50   19   53 1   
    51   20   21 1   
    52   20   54 1   
    53   20   55 1   
    54   21   22 1   
    55   21   56 1   
    56   21   57 1   
    57   22   58 1   
    58   22   59 1   
    59   22   60 1   
@<TRIPOS>SUBSTRUCTURE
     1 VA          1 TEMP              0 ****  ****    0 ROOT
