@<TRIPOS>MOLECULE
molecule
   60    59     1     0     0
SMALL
bcc


@<TRIPOS>ATOM
      1 O21          0.0000     0.0000     0.0000 o          1 VA       -0.552000
      2 C20          1.2080     0.0000     0.0000 c          1 VA        0.635100
      3 C22          1.9620     0.0000     1.3050 c3         1 VA       -0.138100
      4 O19          1.8790    -0.0000    -1.1620 os         1 VA       -0.445900
      5 C1           1.1530    -0.0000    -2.4200 c3         1 VA        0.155400
      6 C2           2.1470     0.0000    -3.5830 c3         1 VA       -0.085400
      7 C3           1.3820     0.0000    -4.9080 c3         1 VA       -0.080400
      8 C4           2.3760     0.0010    -6.0710 c3         1 VA       -0.079400
      9 C5           1.6110     0.0010    -7.3960 c3         1 VA       -0.081400
     10 C6           2.6050     0.0010    -8.5590 c3         1 VA       -0.081400
     11 C7           1.8390     0.0010    -9.8830 c3         1 VA       -0.080400
     12 C8           2.8340     0.0010   -11.0460 c3         1 VA       -0.087400
     13 C9           2.0690     0.0010   -12.3720 c3         1 VA       -0.035400
     14 C10          3.0630     0.0020   -13.5350 c3         1 VA       -0.146200
     15 C11          2.3090     0.0020   -14.8400 c2         1 VA       -0.343200
     16 C12          2.5640     0.9160   -15.7430 c2         1 VA       -0.338200
     17 C13          3.7220     1.8610   -15.5530 c3         1 VA       -0.148200
     18 C14          4.6070     1.8400   -16.8000 c3         1 VA       -0.035400
     19 C15          5.7840     2.8000   -16.6070 c3         1 VA       -0.087400
     20 C16          6.6690     2.7790   -17.8550 c3         1 VA       -0.080400
     21 C17          7.8440     3.7390   -17.6620 c3         1 VA       -0.084400
     22 C18          8.7300     3.7170   -18.9100 c3         1 VA       -0.092100
     23 H221         2.6150    -0.8630     1.3440 hc         1 VA        0.069033
     24 H222         1.2590    -0.0410     2.1280 hc         1 VA        0.069033
     25 H223         2.5530     0.9040     1.3800 hc         1 VA        0.069033
     26 H11A         0.5300    -0.8850    -2.4770 h1         1 VA        0.048200
     27 H12A         0.5300     0.8840    -2.4770 h1         1 VA        0.048200
     28 H21          2.7700    -0.8840    -3.5250 hc         1 VA        0.053700
     29 H22          2.7700     0.8850    -3.5250 hc         1 VA        0.053700
     30 H31          0.7590    -0.8840    -4.9660 hc         1 VA        0.045200
     31 H32          0.7590     0.8850    -4.9660 hc         1 VA        0.045200
     32 H41          2.9980     0.8850    -6.0140 hc         1 VA        0.043200
     33 H42          2.9980    -0.8840    -6.0140 hc         1 VA        0.043200
     34 H51          0.9880     0.8860    -7.4530 hc         1 VA        0.043200
     35 H52          0.9880    -0.8830    -7.4530 hc         1 VA        0.043200
     36 H61          3.2280    -0.8830    -8.5020 hc         1 VA        0.041700
     37 H62          3.2280     0.8860    -8.5010 hc         1 VA        0.041700
     38 H71          1.2170     0.8860    -9.9410 hc         1 VA        0.045200
     39 H72          1.2160    -0.8830    -9.9410 hc         1 VA        0.045200
     40 H81          3.4560    -0.8840   -10.9890 hc         1 VA        0.040700
     41 H82          3.4570     0.8850   -10.9890 hc         1 VA        0.040700
     42 H91          1.4460    -0.8840   -12.4300 hc         1 VA        0.058200
     43 H92          1.4460     0.8850   -12.4290 hc         1 VA        0.058200
     44 H101         3.6860     0.8860   -13.4770 hc         1 VA        0.033700
     45 H102         3.6860    -0.8830   -13.4780 hc         1 VA        0.033700
     46 H11          3.2820    -0.4680   -14.7580 ha         1 VA        0.330000
     47 H12          2.4580     1.8140   -15.1460 ha         1 VA        0.330000
     48 H131         3.3460     2.8640   -15.3930 hc         1 VA        0.034200
     49 H132         4.3030     1.5520   -14.6920 hc         1 VA        0.034200
     50 H141         4.9820     0.8360   -16.9600 hc         1 VA        0.058700
     51 H142         4.0260     2.1500   -17.6610 hc         1 VA        0.058700
     52 H151         6.3650     2.4900   -15.7470 hc         1 VA        0.040700
     53 H152         5.4080     3.8030   -16.4470 hc         1 VA        0.040700
     54 H161         6.0880     3.0880   -18.7150 hc         1 VA        0.045200
     55 H162         7.0450     1.7750   -18.0140 hc         1 VA        0.045200
     56 H171         8.4250     3.4300   -16.8010 hc         1 VA        0.039700
     57 H172         7.4680     4.7420   -17.5030 hc         1 VA        0.039700
     58 H181         8.1490     4.0240   -19.7710 hc         1 VA        0.034033
     59 H182         9.1070     2.7140   -19.0670 hc         1 VA        0.034033
     60 H183         9.5620     4.3980   -18.7740 hc         1 VA        0.034033
@<TRIPOS>BOND
     1     1     2 2
     2     2     3 1
     3     2     4 1
     4     3    23 1
     5     3    24 1
     6     3    25 1
     7     4     5 1
     8     5     6 1
     9     5    26 1
    10     5    27 1
    11     6     7 1
    12     6    28 1
    13     6    29 1
    14     7     8 1
    15     7    30 1
    16     7    31 1
    17     8     9 1
    18     8    32 1
    19     8    33 1
    20     9    10 1
    21     9    34 1
    22     9    35 1
    23    10    11 1
    24    10    36 1
    25    10    37 1
    26    11    12 1
    27    11    38 1
    28    11    39 1
    29    12    13 1
    30    12    40 1
    31    12    41 1
    32    13    14 1
    33    13    42 1
    34    13    43 1
    35    14    15 1
    36    14    44 1
    37    14    45 1
    38    15    16 2
    39    15    46 1
    40    16    17 1
    41    16    47 1
    42    17    18 1
    43    17    48 1
    44    17    49 1
    45    18    19 1
    46    18    50 1
    47    18    51 1
    48    19    20 1
    49    19    52 1
    50    19    53 1
    51    20    21 1
    52    20    54 1
    53    20    55 1
    54    21    22 1
    55    21    56 1
    56    21    57 1
    57    22    58 1
    58    22    59 1
    59    22    60 1
@<TRIPOS>SUBSTRUCTURE
     1 VA          1 TEMP              0 ****  ****    0 ROOT
