@<TRIPOS>MOLECULE
molecule
   44    46     1     0     0
SMALL
bcc


@<TRIPOS>ATOM
      1 N1           0.0000     0.0000     0.0000 nb         1 VA4      -0.782000
      2 C2           1.3200     0.0000     0.0000 ca         1 VA4       0.599900
      3 N3           2.0270     0.0000     1.1110 nb         1 VA4      -0.811000
      4 C4           1.4260    -0.0000     2.2960 ca         1 VA4       0.455800
      5 C5           0.0210     0.0000     2.3490 ca         1 VA4      -0.162200
      6 C6          -0.6890     0.0000     1.1360 ca         1 VA4       0.621200
      7 N6          -2.0730     0.0000     1.1260 nv         1 VA4      -1.060500
      8 N7          -0.3290     0.0000     3.6580 nc         1 VA4      -0.617100
      9 C8           0.7440    -0.0010     4.3930 cd         1 VA4       0.402700
     10 N9           1.8530    -0.0010     3.5990 na         1 VA4      -0.251000
     11 PA           4.6340    -1.9070     9.4200 p5         1 VA4       1.433800
     12 PB           5.1940    -4.5060    10.7310 p5         1 VA4       1.262600
     13 PG           5.6410    -7.3560    11.4680 p5         1 VA4       1.100700
     14 C1'          3.2450    -0.0020     4.0550 c3         1 VA4       0.255800
     15 O1A          3.2430    -1.4730    10.1060 o          1 VA4      -0.850000
     16 O2B          4.1950    -4.3810    11.8150 o          1 VA4      -0.812000
     17 O1G          4.5530    -7.2200    12.6480 o          1 VA4      -0.791833
     18 C2'          3.7710     1.4460     4.1790 c3         1 VA4      -0.157400
     19 O2A          5.7560    -1.2370    10.1140 o          1 VA4      -0.850000
     20 O1B          6.6530    -4.1310    11.2990 o          1 VA4      -0.812000
     21 O2G          5.6510    -8.8700    10.9200 o          1 VA4      -0.791833
     22 C3'          4.6780     1.4100     5.4290 c3         1 VA4       0.101100
     23 O3'          6.0220     1.7440     5.0830 oh         1 VA4      -0.600800
     24 O3A          4.8110    -3.5030     9.5310 os         1 VA4      -0.718800
     25 C3B          5.2060    -6.2200    10.1100 c3         1 VA4      -0.225700
     26 Cl1          3.5730    -6.6410     9.4730 cl         1 VA4      -0.288400
     27 O3G          6.9820    -7.0100    11.9910 o          1 VA4      -0.791833
     28 C4'          4.5920    -0.0540     5.9140 c3         1 VA4       0.129100
     29 O4'          3.3370    -0.5430     5.3910 os         1 VA4      -0.372600
     30 C5'          4.5890    -0.1110     7.4430 c3         1 VA4       0.242400
     31 O5'          4.6260    -1.4740     7.8700 os         1 VA4      -0.587200
     32 H1           1.8410    -0.0000    -0.9500 h5         1 VA4       0.016100
     33 H2          -2.5730     0.8670     1.1080 hn         1 VA4       0.406800
     34 H3          -2.5730    -0.8670     1.1070 hn         1 VA4       0.406800
     35 H4           0.7550    -0.0020     5.4760 h5         1 VA4       0.096800
     36 H5           3.8690    -0.5700     3.3770 h2         1 VA4       0.077700
     37 H8           2.9500     2.1360     4.3270 hc         1 VA4       0.053200
     38 H9           4.3480     1.7150     3.3020 hc         1 VA4       0.053200
     39 H12          4.2970     2.0820     6.1900 h1         1 VA4       0.046700
     40 H13          6.2060     2.6290     5.3520 ho         1 VA4       0.385000
     41 H14          5.9380    -6.3110     9.3160 h1         1 VA4       0.052700
     42 H15          5.4160    -0.6310     5.5110 h1         1 VA4       0.075700
     43 H16          3.6900     0.3620     7.8200 h1         1 VA4       0.029700
     44 H17          5.4580     0.4110     7.8250 h1         1 VA4       0.029700
@<TRIPOS>BOND
     1     2     1 ar
     2     2     3 ar
     3     1     6 ar
     4     3     4 ar
     5     6     7 1
     6     6     5 ar
     7     4     5 ar
     8     4    10 1
     9    18    14 1
    10    18    22 1
    11    14    10 1
    12    14    29 1
    13     5     8 1
    14    10     9 1
    15    23    22 1
    16    22    28 1
    17    29    28 1
    18     8     9 2
    19    28    30 1
    20    16    12 1
    21    30    31 1
    22    31    11 1
    23    12    24 1
    24    12    20 1
    25    12    25 1
    26    24    11 1
    27    26    25 1
    28    11    19 1
    29    11    15 1
    30    25    13 1
    31    13    27 1
    32    13    17 1
    33    13    21 1
    34     2    32 1
    35     7    33 1
    36     7    34 1
    37     9    35 1
    38    14    36 1
    39    18    37 1
    40    18    38 1
    41    22    39 1
    42    23    40 1
    43    25    41 1
    44    28    42 1
    45    30    43 1
    46    30    44 1
@<TRIPOS>SUBSTRUCTURE
     1 VA4         1 TEMP              0 ****  ****    0 ROOT
