@<TRIPOS>MOLECULE
molecule
   44    46     1     0     0
SMALL
bcc


@<TRIPOS>ATOM
      1 PA           0.0000     0.0000     0.0000 p5         1 VA5       1.440800
      2 O1A          1.6100     0.0000     0.0000 o          1 VA5      -0.852000
      3 O2A         -0.4930     0.0000     1.3950 o          1 VA5      -0.852000
      4 O3A         -0.5360     1.3160    -0.7580 os         1 VA5      -0.714800
      5 O5'         -0.5370    -1.3130    -0.7600 os         1 VA5      -0.593200
      6 PB          -0.6260     2.8750    -0.3650 p5         1 VA5       1.252600
      7 O2B          0.7340     3.3920    -0.0900 o          1 VA5      -0.789500
      8 O1B         -1.5420     3.0460     0.9470 o          1 VA5      -0.789500
      9 C3B         -1.3620     3.8080    -1.7480 c3         1 VA5       0.046300
     10 F3B         -0.5670     3.6590    -2.8880 f          1 VA5      -0.247300
     11 Cl1         -3.0180     3.1760    -2.0830 cl         1 VA5      -0.314400
     12 PG          -1.4640     5.5730    -1.3030 p5         1 VA5       1.068700
     13 O1G         -2.1150     6.3970    -2.5230 o          1 VA5      -0.794833
     14 O2G         -2.3800     5.7440     0.0100 o          1 VA5      -0.794833
     15 O3G         -0.1050     6.0910    -1.0270 o          1 VA5      -0.794833
     16 C5'         -0.3200    -2.6390    -0.2710 c3         1 VA5       0.233400
     17 C4'         -0.9590    -3.6460    -1.2290 c3         1 VA5       0.137100
     18 O4'         -0.2710    -3.6270    -2.4850 os         1 VA5      -0.376600
     19 C1'          0.3200    -4.9100    -2.7410 c3         1 VA5       0.265800
     20 N9           0.2440    -5.2310    -4.1680 na         1 VA5      -0.251000
     21 C4           1.0540    -6.1030    -4.8490 ca         1 VA5       0.457800
     22 N3           2.0780    -6.8840    -4.5210 nb         1 VA5      -0.800000
     23 C2           2.6710    -7.6320    -5.4270 ca         1 VA5       0.608900
     24 N1           2.2890    -7.6480    -6.6920 nb         1 VA5      -0.785000
     25 C6           1.2740    -6.9010    -7.1140 ca         1 VA5       0.632200
     26 N6           0.8800    -6.9250    -8.4410 nv         1 VA5      -1.061500
     27 C5           0.6100    -6.0850    -6.1820 ca         1 VA5      -0.161200
     28 N7          -0.4300    -5.2190    -6.2440 nc         1 VA5      -0.620100
     29 C8          -0.6490    -4.7210    -5.0630 cd         1 VA5       0.403700
     30 C2'         -0.5230    -5.9160    -1.9160 c3         1 VA5      -0.165400
     31 C3'         -0.8350    -5.0720    -0.6480 c3         1 VA5       0.103100
     32 O3'          0.2410    -5.1450     0.2890 oh         1 VA5      -0.570800
     33 H5          -0.7670    -2.7400     0.7100 h1         1 VA5       0.036200
     34 H6           0.7450    -2.8290    -0.2040 h1         1 VA5       0.036200
     35 H7          -2.0030    -3.4040    -1.3810 h1         1 VA5       0.068700
     36 H8           1.3490    -4.9210    -2.4020 h2         1 VA5       0.099700
     37 H9           3.5030    -8.2570    -5.1260 h5         1 VA5       0.020100
     38 H10          0.1990    -7.5910    -8.7490 hn         1 VA5       0.408300
     39 H11          1.2980    -6.2970    -9.0980 hn         1 VA5       0.408300
     40 H12         -1.4270    -4.0050    -4.8250 h5         1 VA5       0.088800
     41 H13          0.0580    -6.7950    -1.6640 hc         1 VA5       0.052700
     42 H14         -1.4340    -6.1790    -2.4400 hc         1 VA5       0.052700
     43 H15         -1.7690    -5.3860    -0.1990 h1         1 VA5       0.028700
     44 H16          0.0420    -5.7920     0.9460 ho         1 VA5       0.379000
@<TRIPOS>BOND
     1    23    24 ar
     2    23    22 ar
     3    24    25 ar
     4    22    21 ar
     5    25    26 1
     6    25    27 ar
     7    21    27 ar
     8    21    20 1
     9    30    31 1
    10    30    19 1
    11    27    28 1
    12    31    32 1
    13    31    17 1
    14    20    19 1
    15    20    29 1
    16    19    18 1
    17    18    17 1
    18    28    29 2
    19    17    16 1
    20     7     6 1
    21    16     5 1
    22     5     1 1
    23     6     4 1
    24     6     8 1
    25     6     9 1
    26     4     1 1
    27    10     9 1
    28     1     3 1
    29     1     2 1
    30     9    11 1
    31     9    12 1
    32    15    12 1
    33    12    13 1
    34    12    14 1
    35    16    33 1
    36    16    34 1
    37    17    35 1
    38    19    36 1
    39    23    37 1
    40    26    38 1
    41    26    39 1
    42    29    40 1
    43    30    41 1
    44    30    42 1
    45    31    43 1
    46    32    44 1
@<TRIPOS>SUBSTRUCTURE
     1 VA5         1 TEMP              0 ****  ****    0 ROOT
