@<TRIPOS>MOLECULE
molecule
   44    46     1     0     0
SMALL
bcc


@<TRIPOS>ATOM
      1 N1           0.0000     0.0000     0.0000 nb         1 VA6      -0.784000
      2 C2           1.3210     0.0000     0.0000 ca         1 VA6       0.605900
      3 N3           2.0270     0.0000     1.1110 nb         1 VA6      -0.806000
      4 C4           1.4250     0.0000     2.2970 ca         1 VA6       0.456800
      5 C5           0.0220     0.0010     2.3500 ca         1 VA6      -0.159200
      6 C6          -0.6890     0.0010     1.1370 ca         1 VA6       0.628200
      7 N6          -2.0720     0.0020     1.1260 nv         1 VA6      -1.060500
      8 N7          -0.3280     0.0010     3.6580 nc         1 VA6      -0.618100
      9 C8           0.7450     0.0010     4.3930 cd         1 VA6       0.403700
     10 N9           1.8540     0.0000     3.5990 na         1 VA6      -0.251000
     11 PA           5.8270     2.8460     8.1730 p5         1 VA6       1.439800
     12 PB           5.0400     5.2770     9.6740 p5         1 VA6       1.233600
     13 PG           3.7260     7.3850    11.3130 p5         1 VA6       1.044700
     14 C1'          3.2460    -0.0000     4.0550 c3         1 VA6       0.262800
     15 O1A          6.4530     3.6600     7.1080 o          1 VA6      -0.852500
     16 O2B          5.1900     6.3180     8.4550 o          1 VA6      -0.779500
     17 O1G          2.4170     7.7530    12.1770 o          1 VA6      -0.802500
     18 C2'          3.7850    -1.4510     4.1350 c3         1 VA6      -0.163400
     19 O2A          6.9760     2.1790     9.0830 o          1 VA6      -0.852500
     20 O1B          6.2400     5.3540    10.5380 o          1 VA6      -0.779500
     21 O2G          5.0300     7.4680    12.2540 o          1 VA6      -0.802500
     22 C3'          4.9170    -1.2870     5.1870 c3         1 VA6       0.103100
     23 O3'          5.1400    -2.5110     5.8880 oh         1 VA6      -0.597800
     24 O3A          4.8940     3.7840     9.0890 os         1 VA6      -0.713800
     25 C3B          3.5600     5.6940    10.6510 c3         1 VA6       0.110200
     26 F1B          2.4260     5.6220     9.8350 f          1 VA6      -0.277300
     27 F2B          3.4300     4.7900    11.7110 f          1 VA6      -0.277300
     28 O3G          3.8630     8.3420    10.1930 o          1 VA6      -0.802500
     29 C4'          4.3380    -0.2070     6.1250 c3         1 VA6       0.130100
     30 O4'          3.3330     0.5090     5.3950 os         1 VA6      -0.372600
     31 C5'          5.4500     0.7530     6.5540 c3         1 VA6       0.228400
     32 O5'          4.9320     1.6860     7.5050 os         1 VA6      -0.586200
     33 H1           1.8420    -0.0010    -0.9500 h5         1 VA6       0.018100
     34 H2          -2.5720     0.8690     1.1070 hn         1 VA6       0.407800
     35 H3          -2.5730    -0.8640     1.1070 hn         1 VA6       0.407800
     36 H4           0.7560     0.0030     5.4770 h5         1 VA6       0.089800
     37 H5           3.8640     0.5910     3.3900 h2         1 VA6       0.086700
     38 H8           3.0190    -2.1290     4.4910 hc         1 VA6       0.055700
     39 H9           4.1860    -1.7690     3.1800 hc         1 VA6       0.055700
     40 H12          5.8270    -0.9350     4.7160 h1         1 VA6       0.048700
     41 H13          5.9050    -2.9380     5.5410 ho         1 VA6       0.384000
     42 H14          3.8940    -0.6770     6.9950 h1         1 VA6       0.083700
     43 H15          6.2590     0.1910     7.0040 h1         1 VA6       0.026200
     44 H16          5.8200     1.2880     5.6880 h1         1 VA6       0.026200
@<TRIPOS>BOND
     1    23    22 1
     2    29    31 1
     3    29    30 1
     4    29    22 1
     5    31    32 1
     6    20    12 1
     7    30    14 1
     8    22    18 1
     9    18    14 1
    10    16    12 1
    11    28    13 1
    12    14    10 1
    13    12    24 1
    14    12    25 1
    15    15    11 1
    16    32    11 1
    17    17    13 1
    18     3     2 ar
    19     3     4 ar
    20    24    11 1
    21    11    19 1
    22    13    25 1
    23    13    21 1
    24    26    25 1
    25    10     4 1
    26    10     9 1
    27    25    27 1
    28     2     1 ar
    29     4     5 ar
    30     9     8 2
    31     1     6 ar
    32     5     8 1
    33     5     6 ar
    34     6     7 1
    35     2    33 1
    36     7    34 1
    37     7    35 1
    38     9    36 1
    39    14    37 1
    40    18    38 1
    41    18    39 1
    42    22    40 1
    43    23    41 1
    44    29    42 1
    45    31    43 1
    46    31    44 1
@<TRIPOS>SUBSTRUCTURE
     1 VA6         1 TEMP              0 ****  ****    0 ROOT
