@<TRIPOS>MOLECULE
molecule
   44    46     1     0     0
SMALL
bcc


@<TRIPOS>ATOM
      1 N1           0.0000     0.0000     0.0000 nb         1 VA7      -0.785000
      2 C2           1.3210     0.0000     0.0000 ca         1 VA7       0.610900
      3 N3           2.0270     0.0000     1.1110 nb         1 VA7      -0.801000
      4 C4           1.4250     0.0000     2.2970 ca         1 VA7       0.451800
      5 C5           0.0210     0.0000     2.3500 ca         1 VA7      -0.158200
      6 C6          -0.6890    -0.0010     1.1370 ca         1 VA7       0.637200
      7 N6          -2.0720    -0.0000     1.1270 nv         1 VA7      -1.061500
      8 N7          -0.3290     0.0010     3.6590 nc         1 VA7      -0.618100
      9 C8           0.7450     0.0000     4.3950 cd         1 VA7       0.415700
     10 N9           1.8530     0.0000     3.6000 na         1 VA7      -0.249000
     11 PA           4.6360    -1.9040     9.4210 p5         1 VA7       1.436800
     12 PB           5.1960    -4.5030    10.7310 p5         1 VA7       1.256600
     13 PG           5.6430    -7.3520    11.4700 p5         1 VA7       1.076700
     14 C1'          3.2460    -0.0010     4.0550 c3         1 VA7       0.253800
     15 O1A          3.2440    -1.4700    10.1070 o          1 VA7      -0.850500
     16 O2B          4.1970    -4.3790    11.8170 o          1 VA7      -0.798000
     17 O1G          4.5560    -7.2170    12.6510 o          1 VA7      -0.788833
     18 C2'          3.7720     1.4470     4.1780 c3         1 VA7      -0.157400
     19 O2A          5.7580    -1.2340    10.1150 o          1 VA7      -0.850500
     20 O1B          6.6550    -4.1270    11.2990 o          1 VA7      -0.798000
     21 O2G          5.6540    -8.8660    10.9220 o          1 VA7      -0.788833
     22 C3'          4.6790     1.4120     5.4290 c3         1 VA7       0.101100
     23 O3'          6.0240     1.7460     5.0830 oh         1 VA7      -0.599800
     24 O3A          4.8130    -3.5010     9.5310 os         1 VA7      -0.712800
     25 C3B          5.2090    -6.2180    10.1110 c3         1 VA7      -0.012600
     26 Cl1          3.5750    -6.6380     9.4760 cl         1 VA7      -0.265900
     27 Cl2          6.4260    -6.3690     8.7900 cl         1 VA7      -0.265900
     28 O3G          6.9840    -7.0060    11.9930 o          1 VA7      -0.788833
     29 C4'          4.5930    -0.0530     5.9150 c3         1 VA7       0.130100
     30 O4'          3.3380    -0.5410     5.3920 os         1 VA7      -0.373600
     31 C5'          4.5900    -0.1090     7.4430 c3         1 VA7       0.242400
     32 O5'          4.6270    -1.4710     7.8710 os         1 VA7      -0.585200
     33 H1           1.8420     0.0000    -0.9500 h5         1 VA7       0.020100
     34 H2          -2.5730    -0.8670     1.1080 hn         1 VA7       0.409800
     35 H3          -2.5720     0.8670     1.1070 hn         1 VA7       0.409800
     36 H4           0.7570    -0.0010     5.4780 h5         1 VA7       0.100800
     37 H5           3.8700    -0.5700     3.3770 h2         1 VA7       0.079700
     38 H8           4.3490     1.7150     3.3010 hc         1 VA7       0.053200
     39 H9           2.9500     2.1360     4.3260 hc         1 VA7       0.053200
     40 H12          4.2980     2.0840     6.1890 h1         1 VA7       0.046700
     41 H13          6.2070     2.6310     5.3520 ho         1 VA7       0.385000
     42 H14          5.4160    -0.6300     5.5120 h1         1 VA7       0.078700
     43 H15          3.6900     0.3630     7.8200 h1         1 VA7       0.029700
     44 H16          5.4590     0.4130     7.8250 h1         1 VA7       0.029700
@<TRIPOS>BOND
     1     2     1 ar
     2     2     3 ar
     3     1     6 ar
     4     3     4 ar
     5     6     7 1
     6     6     5 ar
     7     4     5 ar
     8     4    10 1
     9    18    14 1
    10    18    22 1
    11    14    10 1
    12    14    30 1
    13     5     8 1
    14    10     9 1
    15    23    22 1
    16    22    29 1
    17    30    29 1
    18     8     9 2
    19    29    31 1
    20    16    12 1
    21    31    32 1
    22    32    11 1
    23    24    12 1
    24    24    11 1
    25    12    20 1
    26    12    25 1
    27    26    25 1
    28    11    19 1
    29    11    15 1
    30    25    27 1
    31    25    13 1
    32    28    13 1
    33    13    21 1
    34    13    17 1
    35     2    33 1
    36     7    34 1
    37     7    35 1
    38     9    36 1
    39    14    37 1
    40    18    38 1
    41    18    39 1
    42    22    40 1
    43    23    41 1
    44    29    42 1
    45    31    43 1
    46    31    44 1
@<TRIPOS>SUBSTRUCTURE
     1 VA7         1 TEMP              0 ****  ****    0 ROOT
