@<TRIPOS>MOLECULE
VAA
   55    57     1     0     0
SMALL
bcc


@<TRIPOS>ATOM
      1 N            0.0000     0.0000     0.0000 nz         1 VAA       0.079400
      2 CA           1.4680     0.0000     0.0000 c3         1 VAA      -0.163500
      3 CB           1.9790     0.0000     1.4430 c3         1 VAA      -0.057700
      4 CG1          1.4690     1.2490     2.1640 c3         1 VAA      -0.025600
      5 CG2          1.4690    -1.2490     2.1630 c3         1 VAA      -0.025600
      6 C            1.9720    -1.2300    -0.7110 c          1 VAA       0.640100
      7 O            1.3160    -2.2490    -0.6940 o          1 VAA      -0.580100
      8 S            3.7010    -2.5470    -2.1470 s6         1 VAA       1.118500
      9 O1S          4.8530    -2.1320    -2.8660 o          1 VAA      -0.532300
     10 O2S          3.6630    -3.5910    -1.1840 o          1 VAA      -0.532300
     11 N3S          3.1480    -1.1960    -1.3650 ns         1 VAA      -0.293300
     12 N5'          2.5750    -2.9510    -3.2930 n7         1 VAA      -0.572100
     13 C5'          2.2380    -2.0010    -4.3550 c3         1 VAA       0.227800
     14 C4'          1.1820    -2.6160    -5.2730 c3         1 VAA       0.145100
     15 O4'         -0.0170    -2.8860    -4.5260 os         1 VAA      -0.414600
     16 C1'         -1.1280    -2.6700    -5.4220 c3         1 VAA       0.155800
     17 N9          -2.3590    -2.4240    -4.6660 na         1 VAA       0.213000
     18 C4          -3.6360    -2.7080    -5.0810 ca         1 VAA       0.293800
     19 N3          -4.1710    -3.2510    -6.1690 nb         1 VAA      -0.675000
     20 C2          -5.4750    -3.4020    -6.2720 ca         1 VAA       0.712900
     21 N1          -6.3080    -3.0340    -5.3170 nb         1 VAA      -0.728000
     22 C6          -5.8660    -2.4870    -4.1900 ca         1 VAA       0.594200
     23 N6          -6.7470    -2.1030    -3.1950 nv         1 VAA      -0.470500
     24 C5          -4.4810    -2.3050    -4.0330 ca         1 VAA      -0.254200
     25 N7          -3.6920    -1.7990    -3.0560 nc         1 VAA      -0.499100
     26 C8          -2.4460    -1.8670    -3.4260 cd         1 VAA       0.214700
     27 C2'         -0.7120    -1.4080    -6.2180 c3         1 VAA       0.131100
     28 O2'         -1.3670    -1.3660    -7.4870 oh         1 VAA      -0.525800
     29 C3'          0.8150    -1.6220    -6.3910 c3         1 VAA       0.136100
     30 O3'          1.1000    -2.1760    -7.6770 oh         1 VAA      -0.537800
     31 HN2         -0.3340     0.8430     0.4230 hn         1 VAA       0.235133
     32 H           -0.3340    -0.0550    -0.9420 hn         1 VAA       0.235133
     33 HA           1.8290     0.8850    -0.5110 hx         1 VAA       0.091700
     34 HB           3.0620     0.0000     1.4420 hc         1 VAA       0.074700
     35 HG11         0.4340     1.1030     2.4490 hc         1 VAA       0.030533
     36 HG12         2.0670     1.4230     3.0500 hc         1 VAA       0.030533
     37 HG13         1.5450     2.1040     1.5030 hc         1 VAA       0.030533
     38 HG21         0.4950    -1.0460     2.5910 hc         1 VAA       0.030533
     39 HG22         1.3900    -2.0660     1.4570 hc         1 VAA       0.030533
     40 HG23         2.1610    -1.5190     2.9520 hc         1 VAA       0.030533
     41 HNS3         3.7070    -0.3650    -1.3460 hn         1 VAA       0.243500
     42 HN'5         2.1630    -3.8630    -3.2880 hn         1 VAA       0.385800
     43 H5'1         3.1280    -1.7720    -4.9300 h1         1 VAA       0.010200
     44 H5'2         1.8490    -1.0910    -3.9150 h1         1 VAA       0.010200
     45 H4'          1.5560    -3.5350    -5.7090 h1         1 VAA       0.062700
     46 H1'         -1.2460    -3.5160    -6.0890 h2         1 VAA       0.087700
     47 H2          -5.8750    -3.8420    -7.1780 h5         1 VAA       0.005100
     48 H61         -7.7340    -2.1930    -3.3380 hn         1 VAA       0.277800
     49 H62         -6.3970    -1.7510    -2.3260 hn         1 VAA       0.277800
     50 H8          -1.6020    -1.5330    -2.8350 h5         1 VAA      -0.001200
     51 H2'         -0.9110    -0.5100    -5.6440 h1         1 VAA       0.008700
     52 HO'2        -1.5690    -0.4710    -7.7070 ho         1 VAA       0.395000
     53 H3'          1.3440    -0.6870    -6.2500 h1         1 VAA       0.007700
     54 HT'3         1.7470    -1.6460    -8.1110 ho         1 VAA       0.398000
     55 HN3         -0.3340    -0.7920     0.5130 hn         1 VAA       0.235133
@<TRIPOS>BOND
     1     1     2 1   
     2     1    31 1   
     3     1    32 1   
     4     1    55 1   
     5     2     3 1   
     6     2     6 1   
     7     2    33 1   
     8     3     4 1   
     9     3     5 1   
    10     3    34 1   
    11     4    35 1   
    12     4    36 1   
    13     4    37 1   
    14     5    38 1   
    15     5    39 1   
    16     5    40 1   
    17     6     7 2   
    18     6    11 1   
    19     8     9 2   
    20     8    10 2   
    21     8    11 1   
    22     8    12 1   
    23    11    41 1   
    24    12    13 1   
    25    12    42 1   
    26    13    14 1   
    27    13    43 1   
    28    13    44 1   
    29    14    15 1   
    30    14    29 1   
    31    14    45 1   
    32    15    16 1   
    33    16    17 1   
    34    16    27 1   
    35    16    46 1   
    36    17    18 1   
    37    17    26 1   
    38    18    19 ar  
    39    18    24 ar  
    40    19    20 ar  
    41    20    21 ar  
    42    20    47 1   
    43    21    22 ar  
    44    22    23 1   
    45    22    24 ar  
    46    23    48 1   
    47    23    49 1   
    48    24    25 1   
    49    25    26 2   
    50    26    50 1   
    51    27    28 1   
    52    27    29 1   
    53    27    51 1   
    54    28    52 1   
    55    29    30 1   
    56    29    53 1   
    57    30    54 1   
@<TRIPOS>SUBSTRUCTURE
     1 VAA         1 TEMP              0 ****  ****    0 ROOT
