@<TRIPOS>MOLECULE
molecule
   55    57     1     0     0
SMALL
bcc


@<TRIPOS>ATOM
      1 N            0.0000     0.0000     0.0000 nz         1 VAA      -0.797600
      2 CA           1.4680     0.0000     0.0000 c3         1 VAA       0.021500
      3 CB           1.9790     0.0000     1.4430 c3         1 VAA      -0.097700
      4 CG1          1.4690     1.2490     2.1640 c3         1 VAA      -0.118600
      5 CG2          1.4690    -1.2490     2.1630 c3         1 VAA      -0.118600
      6 C            1.9720    -1.2300    -0.7110 c          1 VAA       0.671100
      7 O            1.3160    -2.2490    -0.6940 o          1 VAA      -0.535100
      8 S            3.7010    -2.5470    -2.1470 s6         1 VAA       1.520500
      9 O1S          4.8530    -2.1320    -2.8660 o          1 VAA      -0.590800
     10 O2S          3.6630    -3.5910    -1.1840 o          1 VAA      -0.590800
     11 N3S          3.1480    -1.1960    -1.3650 ns         1 VAA      -0.641300
     12 N5'          2.5750    -2.9510    -3.2930 n7         1 VAA      -0.908100
     13 C5'          2.2380    -2.0010    -4.3550 c3         1 VAA       0.236800
     14 C4'          1.1820    -2.6160    -5.2730 c3         1 VAA       0.112100
     15 O4'         -0.0170    -2.8860    -4.5260 os         1 VAA      -0.427600
     16 C1'         -1.1280    -2.6700    -5.4220 c3         1 VAA       0.261800
     17 N9          -2.3590    -2.4240    -4.6660 na         1 VAA      -0.249000
     18 C4          -3.6360    -2.7080    -5.0810 ca         1 VAA       0.499800
     19 N3          -4.1710    -3.2510    -6.1690 nb         1 VAA      -0.787000
     20 C2          -5.4750    -3.4020    -6.2720 ca         1 VAA       0.763900
     21 N1          -6.3080    -3.0340    -5.3170 nb         1 VAA      -0.824000
     22 C6          -5.8660    -2.4870    -4.1900 ca         1 VAA       0.796200
     23 N6          -6.7470    -2.1030    -3.1950 nv         1 VAA      -0.977500
     24 C5          -4.4810    -2.3050    -4.0330 ca         1 VAA      -0.223200
     25 N7          -3.6920    -1.7990    -3.0560 nc         1 VAA      -0.589100
     26 C8          -2.4460    -1.8670    -3.4260 cd         1 VAA       0.393700
     27 C2'         -0.7120    -1.4080    -6.2180 c3         1 VAA       0.096100
     28 O2'         -1.3670    -1.3660    -7.4870 oh         1 VAA      -0.544800
     29 C3'          0.8150    -1.6220    -6.3910 c3         1 VAA       0.093100
     30 O3'          1.1000    -2.1760    -7.6770 oh         1 VAA      -0.557800
     31 HN2         -0.3340     0.8430     0.4230 hn         1 VAA       0.465800
     32 H           -0.3340    -0.0550    -0.9420 hn         1 VAA       0.465800
     33 HA           1.8290     0.8850    -0.5110 hx         1 VAA       0.117700
     34 HB           3.0620     0.0000     1.4420 hc         1 VAA       0.110700
     35 HG11         0.4340     1.1030     2.4490 hc         1 VAA       0.063367
     36 HG12         2.0670     1.4230     3.0500 hc         1 VAA       0.063367
     37 HG13         1.5450     2.1040     1.5030 hc         1 VAA       0.063367
     38 HG21         0.4950    -1.0460     2.5910 hc         1 VAA       0.063367
     39 HG22         1.3900    -2.0660     1.4570 hc         1 VAA       0.063367
     40 HG23         2.1610    -1.5190     2.9520 hc         1 VAA       0.063367
     41 HNS3         3.7070    -0.3650    -1.3460 hn         1 VAA       0.355500
     42 HN'5         2.1630    -3.8630    -3.2880 hn         1 VAA       0.486800
     43 H5'1         3.1280    -1.7720    -4.9300 h1         1 VAA       0.045200
     44 H5'2         1.8490    -1.0910    -3.9150 h1         1 VAA       0.045200
     45 H4'          1.5560    -3.5350    -5.7090 h1         1 VAA       0.100700
     46 H1'         -1.2460    -3.5160    -6.0890 h2         1 VAA       0.131700
     47 H2          -5.8750    -3.8420    -7.1780 h5         1 VAA       0.074100
     48 H61         -7.7340    -2.1930    -3.3380 hn         1 VAA       0.452800
     49 H62         -6.3970    -1.7510    -2.3260 hn         1 VAA       0.452800
     50 H8          -1.6020    -1.5330    -2.8350 h5         1 VAA       0.043800
     51 H2'         -0.9110    -0.5100    -5.6440 h1         1 VAA       0.045700
     52 HO'2        -1.5690    -0.4710    -7.7070 ho         1 VAA       0.412000
     53 H3'          1.3440    -0.6870    -6.2500 h1         1 VAA       0.043700
     54 HT'3         1.7470    -1.6460    -8.1110 ho         1 VAA       0.415000
     55 HN3         -0.3340    -0.7920     0.5130 hn         1 VAA       0.465800
@<TRIPOS>BOND
     1     1     2 1
     2     1    31 1
     3     1    32 1
     4     2     3 1
     5     2     6 1
     6     2    33 1
     7     3     4 1
     8     3     5 1
     9     3    34 1
    10     4    35 1
    11     4    36 1
    12     4    37 1
    13     5    38 1
    14     5    39 1
    15     5    40 1
    16     6     7 2
    17     6    11 1
    18     8     9 2
    19     8    10 2
    20     8    11 1
    21     8    12 1
    22    11    41 1
    23    12    13 1
    24    12    42 1
    25    13    14 1
    26    13    43 1
    27    13    44 1
    28    14    15 1
    29    14    29 1
    30    14    45 1
    31    15    16 1
    32    16    17 1
    33    16    27 1
    34    16    46 1
    35    17    18 1
    36    17    26 1
    37    18    19 ar
    38    18    24 ar
    39    19    20 ar
    40    20    21 ar
    41    20    47 1
    42    21    22 ar
    43    22    23 1
    44    22    24 ar
    45    23    48 1
    46    23    49 1
    47    24    25 1
    48    25    26 2
    49    26    50 1
    50    27    28 1
    51    27    29 1
    52    27    51 1
    53    28    52 1
    54    29    30 1
    55    29    53 1
    56    30    54 1
    57    55     1 1
@<TRIPOS>SUBSTRUCTURE
     1 VAA         1 TEMP              0 ****  ****    0 ROOT
