@<TRIPOS>MOLECULE
VAB
   34    35     1     0     0
SMALL
bcc


@<TRIPOS>ATOM
      1 C8           0.0000     0.0000     0.0000 ca         1 VAB      -0.033000
      2 C9           1.3720     0.0000     0.0000 ca         1 VAB      -0.137000
      3 C11          1.3950     0.0000     2.4020 ca         1 VAB      -0.069000
      4 C7          -0.7160    -0.0000     1.2150 ca         1 VAB       0.036400
      5 C10          2.0790     0.0000     1.1990 ca         1 VAB      -0.049400
      6 C12          0.0030    -0.0000     2.4140 ca         1 VAB       0.022900
      7 C5          -2.4870     0.0000     2.6190 cc         1 VAB       0.429100
      8 C1          -7.1540     1.0290     1.1720 c2         1 VAB      -0.150000
      9 C2          -6.4550     0.0010     1.5850 c2         1 VAB      -0.141200
     10 C15          4.1620     0.6700     2.1380 c          1 VAB       0.558100
     11 C19          7.6880     1.6540     3.1860 c          1 VAB       0.979600
     12 C3          -4.9560     0.0000     1.4380 c3         1 VAB       0.129900
     13 C17          5.6650     0.7570     2.0680 c3         1 VAB      -0.078400
     14 C18          6.1850     1.5670     3.2560 c3         1 VAB      -0.123400
     15 N6          -2.0520    -0.0000     1.4060 nd         1 VAB      -0.463100
     16 N14          3.4800    -0.0010     1.1880 ns         1 VAB      -0.063100
     17 O16          3.5650     1.2040     3.0500 o          1 VAB      -0.634100
     18 O20          8.2820     1.1230     2.2780 o          1 VAB      -0.904300
     19 O21          8.3660     2.3220     4.1320 o          1 VAB      -0.904300
     20 S13         -1.1440    -0.0010     3.7520 ss         1 VAB      -0.177100
     21 S4          -4.1890    -0.0000     3.0770 ss         1 VAB      -0.282300
     22 H8          -0.5380     0.0000    -0.9410 ha         1 VAB       0.105000
     23 H9           1.9090    -0.0000    -0.9410 ha         1 VAB       0.109000
     24 H11          1.9440     0.0000     3.3350 ha         1 VAB       0.165000
     25 H14          3.9750    -0.5200     0.4900 hn         1 VAB       0.174500
     26 H11C        -6.6530     1.8790     0.7240 ha         1 VAB       0.086000
     27 H12C        -8.2320     1.0290     1.2780 ha         1 VAB       0.086000
     28 H2          -6.9560    -0.8490     2.0330 ha         1 VAB       0.109000
     29 H31C        -4.6470    -0.8840     0.8940 h1         1 VAB       0.051700
     30 H32C        -4.6460     0.8850     0.8940 h1         1 VAB       0.051700
     31 H171         5.9550     1.2440     1.1440 hc         1 VAB       0.038200
     32 H172         6.0860    -0.2400     2.0980 hc         1 VAB       0.038200
     33 H181         5.7640     2.5650     3.2250 hc         1 VAB       0.020700
     34 H182         5.8940     1.0810     4.1790 hc         1 VAB       0.020700
@<TRIPOS>BOND
     1     1     2 ar  
     2     1     4 ar  
     3     1    22 1   
     4     2     5 ar  
     5     2    23 1   
     6     3     5 ar  
     7     3     6 ar  
     8     3    24 1   
     9     4     6 ar  
    10     4    15 1   
    11     5    16 1   
    12     6    20 1   
    13     7    15 2   
    14     7    20 1   
    15     7    21 1   
    16     8     9 2   
    17     8    26 1   
    18     8    27 1   
    19     9    12 1   
    20     9    28 1   
    21    10    13 1   
    22    10    16 1   
    23    10    17 2   
    24    11    14 1   
    25    11    18 1   
    26    11    19 1   
    27    12    21 1   
    28    12    29 1   
    29    12    30 1   
    30    13    14 1   
    31    13    31 1   
    32    13    32 1   
    33    14    33 1   
    34    14    34 1   
    35    16    25 1   
@<TRIPOS>SUBSTRUCTURE
     1 VAB         1 TEMP              0 ****  ****    0 ROOT
