@<TRIPOS>MOLECULE
molecule
   32    33     1     0     0
SMALL
bcc


@<TRIPOS>ATOM
      1 C            0.0000     0.0000     0.0000 c          1 VAE       0.889200
      2 C'           6.3690    -1.0970     1.7750 c          1 VAE       0.798800
      3 C1           1.4730     0.0000     0.0000 ca         1 VAE      -0.106600
      4 C2           2.1780     0.0000     1.2100 ca         1 VAE       0.106100
      5 O2           1.5070    -0.0020     2.3900 oh         1 VAE      -0.480100
      6 C3           3.5700     0.0000     1.1970 ca         1 VAE       0.096100
      7 O3           4.2610    -0.0010     2.3680 os         1 VAE      -0.235200
      8 C4           4.2510     0.0010    -0.0090 ca         1 VAE      -0.189000
      9 C5           3.5530     0.0020    -1.2060 ca         1 VAE      -0.148000
     10 C6           2.1760    -0.0050    -1.2090 ca         1 VAE      -0.123000
     11 C7           5.6180     0.0460     2.3070 ce         1 VAE       0.226900
     12 C8           6.2760     1.1460     2.7380 cf         1 VAE      -0.519200
     13 C9           7.7340     1.1030     2.9290 ca         1 VAE      -0.004800
     14 OA          -0.6750     0.0010    -1.1660 o          1 VAE      -0.844800
     15 OB          -0.6070    -0.0060     1.0530 o          1 VAE      -0.844800
     16 C10          8.5330     2.1600     2.4790 ca         1 VAE      -0.091500
     17 C11          9.8990     2.1130     2.6630 ca         1 VAE      -0.157500
     18 C12         10.4790     1.0230     3.2900 ca         1 VAE      -0.156000
     19 C13          9.6950    -0.0250     3.7380 ca         1 VAE      -0.157500
     20 C14          8.3280     0.0090     3.5670 ca         1 VAE      -0.091500
     21 OA'          7.7020    -1.0010     1.5910 o          1 VAE      -0.800800
     22 OB'          5.7910    -2.1300     1.5010 o          1 VAE      -0.800800
     23 HO2          1.5890     0.8430     2.8000 ho         1 VAE       0.399000
     24 H4           5.3340     0.0040    -0.0160 ha         1 VAE       0.138000
     25 H5           4.0940     0.0000    -2.1450 ha         1 VAE       0.102000
     26 H6           1.6370    -0.0040    -2.1490 ha         1 VAE       0.143000
     27 H8           6.9200     1.3580     1.8930 ha         1 VAE       0.313000
     28 H10          8.0800     3.0130     1.9890 ha         1 VAE       0.129000
     29 H11         10.5200     2.9300     2.3160 ha         1 VAE       0.097000
     30 H12         11.5530     0.9910     3.4300 ha         1 VAE       0.089000
     31 H13         10.1570    -0.8730     4.2290 ha         1 VAE       0.097000
     32 H14          7.7160    -0.8130     3.9180 ha         1 VAE       0.129000
@<TRIPOS>BOND
     1     1     3 1
     2     1    14 1
     3     1    15 1
     4     2    11 1
     5     2    21 1
     6     2    22 1
     7     3     4 ar
     8     3    10 ar
     9     4     5 1
    10     4     6 ar
    11     6     7 1
    12     6     8 ar
    13     7    11 1
    14     8     9 ar
    15     9    10 ar
    16    11    12 2
    17    12    13 1
    18    13    16 ar
    19    13    20 ar
    20    16    17 ar
    21    17    18 ar
    22    18    19 ar
    23    19    20 ar
    24     5    23 1
    25     8    24 1
    26     9    25 1
    27    10    26 1
    28    12    27 1
    29    16    28 1
    30    17    29 1
    31    18    30 1
    32    19    31 1
    33    20    32 1
@<TRIPOS>SUBSTRUCTURE
     1 VAE         1 TEMP              0 ****  ****    0 ROOT
