@<TRIPOS>MOLECULE
VAE
   32    33     1     0     0
SMALL
bcc


@<TRIPOS>ATOM
      1 C           0.4620    1.2290    0.2610 c         1 VAE      0.917200
      2 C'          6.2950   -2.1220    3.2200 c         1 VAE      0.926800
      3 C1          1.8420    0.6200    0.1420 ca        1 VAE     -0.219600
      4 C2          2.5150    0.0100    1.2210 ca        1 VAE      0.177100
      5 O2          2.0050   -0.0930    2.4820 oh        1 VAE     -0.516100
      6 C3          3.8020   -0.5500    1.0130 ca        1 VAE      0.022100
      7 O3          4.3900   -1.2880    2.0430 os        1 VAE     -0.216200
      8 C4          4.4080   -0.4850   -0.2440 ca        1 VAE     -0.129000
      9 C5          3.7420    0.1290   -1.3010 ca        1 VAE     -0.208000
     10 C6          2.4740    0.6700   -1.1040 ca        1 VAE     -0.085000
     11 C7          5.6710   -0.9550    2.4310 ce        1 VAE      0.116900
     12 C8          6.2310    0.2450    2.1420 cf        1 VAE     -0.318200
     13 C9          7.5480    0.7150    2.4940 ca        1 VAE      0.054200
     14 OA         -0.0570    1.7580   -0.7640 o         1 VAE     -0.847800
     15 OB         -0.1400    1.1930    1.3800 o         1 VAE     -0.847800
     16 C10         7.7960    2.1030    2.4680 ca        1 VAE     -0.151500
     17 C11         9.0540    2.6120    2.7700 ca        1 VAE     -0.138500
     18 C12        10.1000    1.7530    3.1030 ca        1 VAE     -0.191000
     19 C13         9.8700    0.3770    3.1310 ca        1 VAE     -0.138500
     20 C14         8.6150   -0.1410    2.8280 ca        1 VAE     -0.151500
     21 OA'         6.9850   -2.9450    2.5550 o         1 VAE     -0.813800
     22 OB'         6.1110   -2.1680    4.4620 o         1 VAE     -0.813800
     23 HO2         1.1120    0.3120    2.4940 ho        1 VAE      0.469000
     24 H4          5.4100   -0.9180   -0.3740 ha        1 VAE      0.136000
     25 H5          4.2190    0.1840   -2.2880 ha        1 VAE      0.101000
     26 H6          1.9330    1.1560   -1.9320 ha        1 VAE      0.142000
     27 H8          5.6230    0.9820    1.5850 ha        1 VAE      0.122000
     28 H10         6.9750    2.7880    2.2100 ha        1 VAE      0.153500
     29 H11         9.2230    3.6980    2.7470 ha        1 VAE      0.100500
     30 H12        11.0920    2.1550    3.3430 ha        1 VAE      0.094000
     31 H13        10.6880   -0.3080    3.3950 ha        1 VAE      0.100500
     32 H14         8.4450   -1.2330    2.8500 ha        1 VAE      0.153500
@<TRIPOS>BOND
     1    1    3 1   
     2    1   14 1   
     3    1   15 1   
     4    2   11 1   
     5    2   21 1   
     6    2   22 1   
     7    3    4 ar  
     8    3   10 ar  
     9    4    5 1   
    10    4    6 ar  
    11    5   23 1   
    12    6    7 1   
    13    6    8 ar  
    14    7   11 1   
    15    8    9 ar  
    16    8   24 1   
    17    9   10 ar  
    18    9   25 1   
    19   10   26 1   
    20   11   12 2   
    21   12   13 1   
    22   12   27 1   
    23   13   16 ar  
    24   13   20 ar  
    25   16   17 ar  
    26   16   28 1   
    27   17   18 ar  
    28   17   29 1   
    29   18   19 ar  
    30   18   30 1   
    31   19   20 ar  
    32   19   31 1   
    33   20   32 1   
@<TRIPOS>SUBSTRUCTURE
     1 VAE         1 TEMP              0 ****  ****    0 ROOT
