@<TRIPOS>MOLECULE
molecule
   50    53     1     0     0
SMALL
bcc


@<TRIPOS>ATOM
      1 C1           0.0000     0.0000     0.0000 ca         1 VAK      -0.118000
      2 C2           1.3870     0.0000     0.0000 ca         1 VAK      -0.078000
      3 C3           2.0880     0.0000     1.1870 ca         1 VAK      -0.209000
      4 C4           1.4130     0.0010     2.4060 ca         1 VAK       0.181100
      5 C5          -0.7210     0.0030     3.6980 c          1 VAK       0.591300
      6 C6          -2.8350    -0.5920     4.8860 ca         1 VAK       0.170100
      7 C7          -4.8640    -1.1830     6.1910 c3         1 VAK       0.203400
      8 C8          -6.2020    -1.8860     5.9760 c3         1 VAK      -0.093400
      9 C9          -7.0220    -1.0680     4.9710 c3         1 VAK       0.166800
     10 C10         -6.3730    -1.1670     3.5960 c3         1 VAK      -0.090400
     11 C11         -4.2360    -0.5750     2.4870 ca         1 VAK      -0.087000
     12 C12         -2.1730     0.0120     1.2210 c          1 VAK       0.592300
     13 C13         -8.4520    -1.6060     4.9130 c3         1 VAK      -0.118400
     14 C14         -6.5400    -2.5690     3.0680 c          1 VAK       0.633100
     15 C15         -7.6790    -4.2370     1.8050 c3         1 VAK       0.137700
     16 C16          0.0170     0.0030     2.4210 ca         1 VAK      -0.163600
     17 O16         -7.5820    -2.8680     2.2760 os         1 VAK      -0.430900
     18 C17         -2.1650    -0.3030     3.6980 ca         1 VAK      -0.160600
     19 O17         -5.7360    -3.4220     3.3570 o          1 VAK      -0.536000
     20 C18         -2.8790    -0.2940     2.4830 ca         1 VAK      -0.119600
     21 O18         -2.7980     0.2670     0.2100 o          1 VAK      -0.513100
     22 C19         -4.8990    -0.8660     3.6780 ca         1 VAK      -0.023300
     23 O19          2.1080     0.0010     3.5700 oh         1 VAK      -0.461100
     24 C20         -4.2040    -0.8820     4.8700 ca         1 VAK      -0.057300
     25 O20         -0.1460     0.2520     4.7410 o          1 VAK      -0.490100
     26 C21         -0.6930     0.0070     1.2040 ca         1 VAK      -0.098600
     27 O21         -2.1580    -0.5920     6.0600 oh         1 VAK      -0.510100
     28 C22         -9.1090    -1.4590     6.2870 c3         1 VAK      -0.096100
     29 O22         -5.0830     0.0410     6.8970 oh         1 VAK      -0.578800
     30 O23         -7.0400     0.3050     5.3690 oh         1 VAK      -0.561800
     31 H1          -0.5420     0.0000    -0.9380 ha         1 VAK       0.156000
     32 H2           1.9240    -0.0010    -0.9410 ha         1 VAK       0.140000
     33 H3           3.1710    -0.0000     1.1720 ha         1 VAK       0.138000
     34 H7          -4.2150    -1.8250     6.7740 h1         1 VAK       0.057700
     35 H8          -6.0310    -2.8810     5.5820 hc         1 VAK       0.072200
     36 H8A         -6.7360    -1.9470     6.9170 hc         1 VAK       0.072200
     37 H10         -6.8470    -0.4640     2.9230 hc         1 VAK       0.087700
     38 H11         -4.7860    -0.5770     1.5530 ha         1 VAK       0.154000
     39 H13         -9.0200    -1.0450     4.1800 hc         1 VAK       0.052200
     40 H13A        -8.4340    -2.6520     4.6320 hc         1 VAK       0.052200
     41 H15         -7.6710    -4.9120     2.6520 h1         1 VAK       0.050700
     42 H15A        -8.6010    -4.3640     1.2510 h1         1 VAK       0.050700
     43 H15B        -6.8370    -4.4580     1.1600 h1         1 VAK       0.050700
     44 HO19         2.9940     0.2760     3.4070 ho         1 VAK       0.422000
     45 HO21        -2.0820     0.2920     6.3790 ho         1 VAK       0.442000
     46 H22         -8.9490    -2.3630     6.8630 hc         1 VAK       0.042700
     47 H22A        -8.6710    -0.6170     6.8090 hc         1 VAK       0.042700
     48 H22B       -10.1730    -1.2940     6.1630 hc         1 VAK       0.042700
     49 HO22        -4.8260    -0.0650     7.7980 ho         1 VAK       0.396000
     50 HO23        -7.7240     0.7580     4.9040 ho         1 VAK       0.397000
@<TRIPOS>BOND
     1    26     1 ar
     2     1     2 ar
     3     1    31 1
     4     3     2 ar
     5     2    32 1
     6     4     3 ar
     7     3    33 1
     8    16     4 ar
     9    23     4 1
    10    18     5 1
    11    25     5 2
    12     5    16 1
    13    24     6 ar
    14    27     6 1
    15     6    18 ar
    16     8     7 1
    17     7    29 1
    18     7    24 1
    19     7    34 1
    20     8     9 1
    21     8    35 1
    22     8    36 1
    23    13     9 1
    24     9    30 1
    25     9    10 1
    26    14    10 1
    27    10    22 1
    28    10    37 1
    29    22    11 ar
    30    11    20 ar
    31    11    38 1
    32    20    12 1
    33    12    21 2
    34    12    26 1
    35    28    13 1
    36    13    39 1
    37    13    40 1
    38    19    14 2
    39    14    17 1
    40    15    17 1
    41    15    41 1
    42    15    42 1
    43    15    43 1
    44    16    26 ar
    45    18    20 ar
    46    24    22 ar
    47    23    44 1
    48    27    45 1
    49    28    46 1
    50    28    47 1
    51    28    48 1
    52    29    49 1
    53    30    50 1
@<TRIPOS>SUBSTRUCTURE
     1 VAK         1 TEMP              0 ****  ****    0 ROOT
