@<TRIPOS>MOLECULE
VAK
   50    53     1     0     0
SMALL
bcc


@<TRIPOS>ATOM
      1 C1         -0.1900    0.0130   -0.0110 ca        1 VAK     -0.123000
      2 C2          1.2050   -0.0080   -0.0830 ca        1 VAK     -0.073000
      3 C3          1.9650   -0.0020    1.0780 ca        1 VAK     -0.205000
      4 C4          1.3230    0.0340    2.3310 ca        1 VAK      0.174100
      5 C5         -0.7520    0.1340    3.7330 c         1 VAK      0.606300
      6 C6         -2.8380   -0.5320    4.9810 ca        1 VAK      0.192100
      7 C7         -4.8410   -1.2250    6.3350 c3        1 VAK      0.212400
      8 C8         -6.2790   -1.7230    6.2390 c3        1 VAK     -0.072400
      9 C9         -7.0960   -1.0990    5.1110 c3        1 VAK      0.171800
     10 C10        -6.3760   -1.2820    3.7530 c3        1 VAK     -0.095400
     11 C11        -4.2780   -0.6100    2.6030 ca        1 VAK     -0.114000
     12 C12        -2.3080    0.0380    1.2760 c         1 VAK      0.583300
     13 C13        -8.4920   -1.7390    5.0320 c3        1 VAK     -0.119400
     14 C14        -6.5190   -2.6970    3.2440 c         1 VAK      0.638100
     15 C15        -7.1350   -4.0200    1.3600 c3        1 VAK      0.124700
     16 C16        -0.0840    0.0630    2.4210 ca        1 VAK     -0.161600
     17 O16        -6.9850   -2.7320    1.9580 os        1 VAK     -0.440900
     18 C17        -2.1810   -0.2330    3.7750 ca        1 VAK     -0.212600
     19 O17        -6.2820   -3.7680    3.8040 o         1 VAK     -0.531000
     20 C18        -2.9310   -0.2740    2.5810 ca        1 VAK     -0.097600
     21 O18        -2.9870    0.2630    0.2660 o         1 VAK     -0.515100
     22 C19        -4.9230   -0.9240    3.8130 ca        1 VAK     -0.017300
     23 O19         2.0290    0.0240    3.5050 oh        1 VAK     -0.461100
     24 C20        -4.2180   -0.8870    5.0090 ca        1 VAK     -0.096300
     25 O20        -0.1400    0.4890    4.7530 o         1 VAK     -0.535100
     26 C21        -0.8290    0.0400    1.2300 ca        1 VAK     -0.093600
     27 O21        -2.2420   -0.5360    6.2130 oh        1 VAK     -0.517100
     28 C22        -9.3460   -1.4200    6.2310 c3        1 VAK     -0.092100
     29 O22        -4.8590   -0.1110    7.2180 oh        1 VAK     -0.584800
     30 O23        -7.2060    0.2930    5.3830 oh        1 VAK     -0.563800
     31 H1         -0.7980    0.0120   -0.9300 ha        1 VAK      0.163000
     32 H2          1.7020   -0.0290   -1.0650 ha        1 VAK      0.145000
     33 H3          3.0640   -0.0220    1.0280 ha        1 VAK      0.143000
     34 H7         -4.2080   -2.0400    6.8030 h1        1 VAK      0.052700
     35 H8         -6.7900   -1.5010    7.2140 hc        1 VAK      0.081200
     36 H8A        -6.2620   -2.8330    6.0730 hc        1 VAK      0.081200
     37 H10        -6.8760   -0.5950    3.0070 hc        1 VAK      0.095700
     38 H11        -4.8490   -0.6290    1.6580 ha        1 VAK      0.167000
     39 H13        -9.0000   -1.3680    4.1020 hc        1 VAK      0.052700
     40 H13A       -8.3750   -2.8500    4.9340 hc        1 VAK      0.052700
     41 H15        -6.1500   -4.5450    1.3350 h1        1 VAK      0.053367
     42 H15A       -7.8760   -4.6230    1.9380 h1        1 VAK      0.053367
     43 H15B       -7.5050   -3.7920    0.3300 h1        1 VAK      0.053367
     44 HO19        2.9750    0.0390    3.2890 ho        1 VAK      0.423000
     45 HO21       -1.3100   -0.2710    6.1490 ho        1 VAK      0.468000
     46 H22       -10.3960   -1.7550    6.0520 hc        1 VAK      0.042700
     47 H22A       -9.3480   -0.3210    6.4340 hc        1 VAK      0.042700
     48 H22B       -8.9610   -1.9410    7.1410 hc        1 VAK      0.042700
     49 HO22       -3.9510    0.2040    7.3060 ho        1 VAK      0.414000
     50 HO23       -7.8540    0.6530    4.7640 ho        1 VAK      0.396000
@<TRIPOS>BOND
     1    1    2 ar  
     2    1   26 ar  
     3    1   31 1   
     4    2    3 ar  
     5    2   32 1   
     6    3    4 ar  
     7    3   33 1   
     8    4   16 ar  
     9    4   23 1   
    10    5   16 1   
    11    5   18 1   
    12    5   25 2   
    13    6   18 ar  
    14    6   24 ar  
    15    6   27 1   
    16    7    8 1   
    17    7   24 1   
    18    7   29 1   
    19    7   34 1   
    20    8    9 1   
    21    8   35 1   
    22    8   36 1   
    23    9   10 1   
    24    9   13 1   
    25    9   30 1   
    26   10   14 1   
    27   10   22 1   
    28   10   37 1   
    29   11   20 ar  
    30   11   22 ar  
    31   11   38 1   
    32   12   20 1   
    33   12   21 2   
    34   12   26 1   
    35   13   28 1   
    36   13   39 1   
    37   13   40 1   
    38   14   17 1   
    39   14   19 2   
    40   15   17 1   
    41   15   41 1   
    42   15   42 1   
    43   15   43 1   
    44   16   26 ar  
    45   18   20 ar  
    46   22   24 ar  
    47   23   44 1   
    48   27   45 1   
    49   28   46 1   
    50   28   47 1   
    51   28   48 1   
    52   29   49 1   
    53   30   50 1   
@<TRIPOS>SUBSTRUCTURE
     1 VAK         1 TEMP              0 ****  ****    0 ROOT
