@<TRIPOS>MOLECULE
VAM
   48    49     1     0     0
SMALL
bcc


@<TRIPOS>ATOM
      1 O10         0.4800    0.9770    0.2720 oh        1 VAM     -0.598800
      2 C12         1.6700    0.2070    0.1970 c3        1 VAM      0.126400
      3 C11         2.1880    0.0570    1.6300 c3        1 VAM      0.140100
      4 O11         1.5430   -1.0950    2.1730 os        1 VAM     -0.429600
      5 C7          1.8990   -1.3200    3.5310 c3        1 VAM      0.300900
      6 O7          1.2190   -2.5150    3.8480 os        1 VAM     -0.423600
      7 CM         -0.1980   -2.3850    3.8700 c3        1 VAM      0.120700
      8 C10         3.7190   -0.1390    1.6330 c3        1 VAM      0.121100
      9 O9          4.2560    1.1200    1.2180 os        1 VAM     -0.389600
     10 C9          4.2240   -0.4620    3.0500 c3        1 VAM      0.133100
     11 C8          3.4040   -1.6130    3.6590 c3        1 VAM      0.083100
     12 O8          3.7820   -1.6960    5.0210 oh        1 VAM     -0.603800
     13 O1          5.5790   -0.8660    2.9320 oh        1 VAM     -0.597800
     14 O6          6.4110    3.7100   -2.0480 oh        1 VAM     -0.605800
     15 C2          8.7270    1.3230    1.6490 c3        1 VAM      0.142400
     16 O2          8.6480    0.1650    2.4470 oh        1 VAM     -0.599800
     17 C3          7.6930    1.2750    0.5150 c3        1 VAM      0.108100
     18 O3          6.4390    1.2070    1.1950 os        1 VAM     -0.424600
     19 C4          7.7360    2.5040   -0.3860 c3        1 VAM     -0.040600
     20 C5          6.5680    2.4730   -1.3710 c3        1 VAM      0.120100
     21 C6          5.2250    2.2480   -0.6460 c3        1 VAM      0.122100
     22 C70         5.3360    1.0450    0.3130 c3        1 VAM      0.347900
     23 O5          4.2220    1.9180   -1.5890 oh        1 VAM     -0.599800
     24 S10         9.2240    2.5390   -1.3670 sh        1 VAM     -0.375900
     25 H10         0.1560    1.0620   -0.6320 ho        1 VAM      0.403000
     26 H121        1.4530   -0.8010   -0.2450 h1        1 VAM      0.052700
     27 H122        2.4420    0.7470   -0.4190 h1        1 VAM      0.052700
     28 H11         1.9180    0.9670    2.2350 h1        1 VAM      0.078700
     29 HA          4.0100   -0.9690    0.9340 h1        1 VAM      0.074700
     30 H7          1.5750   -0.4620    4.1820 h2        1 VAM      0.055700
     31 H8          3.6450   -2.5780    3.1310 h1        1 VAM      0.075700
     32 HMC1       -0.5580   -3.4120    4.1290 h1        1 VAM      0.043367
     33 HMC2       -0.5050   -1.6480    4.6520 h1        1 VAM      0.043367
     34 HMC3       -0.5780   -2.0700    2.8690 h1        1 VAM      0.043367
     35 H9          4.1550    0.4520    3.7020 h1        1 VAM      0.070700
     36 H70         5.3970    0.0730   -0.2460 h2        1 VAM      0.065700
     37 H1          5.8700   -1.0980    3.8250 ho        1 VAM      0.420000
     38 HB          3.2720   -2.4220    5.4030 ho        1 VAM      0.424000
     39 H6          7.2600    3.9090   -2.4700 ho        1 VAM      0.426000
     40 H2C1        9.7650    1.3250    1.2230 h1        1 VAM      0.051700
     41 H2C2        8.5580    2.2380    2.2770 h1        1 VAM      0.051700
     42 H2          7.7180    0.0470    2.6990 ho        1 VAM      0.430000
     43 H3          7.8400    0.3410   -0.0980 h1        1 VAM      0.071700
     44 H4          7.6630    3.4290    0.2410 h1        1 VAM      0.096700
     45 HC         10.0190    3.1890   -0.5340 hs        1 VAM      0.216800
     46 HD          4.9380    3.1720   -0.0730 h1        1 VAM      0.082700
     47 HE          4.1420    2.6820   -2.1760 ho        1 VAM      0.425000
     48 H5          6.7290    1.6500   -2.1250 h1        1 VAM      0.064700
@<TRIPOS>BOND
     1    1    2 1   
     2    1   25 1   
     3    2    3 1   
     4    2   26 1   
     5    2   27 1   
     6    3    4 1   
     7    3    8 1   
     8    3   28 1   
     9    4    5 1   
    10    5    6 1   
    11    5   11 1   
    12    5   30 1   
    13    6    7 1   
    14    7   32 1   
    15    7   33 1   
    16    7   34 1   
    17    8    9 1   
    18    8   10 1   
    19    8   29 1   
    20    9   22 1   
    21   10   11 1   
    22   10   13 1   
    23   10   35 1   
    24   11   12 1   
    25   11   31 1   
    26   12   38 1   
    27   13   37 1   
    28   14   20 1   
    29   14   39 1   
    30   15   16 1   
    31   15   17 1   
    32   15   40 1   
    33   15   41 1   
    34   16   42 1   
    35   17   18 1   
    36   17   19 1   
    37   17   43 1   
    38   18   22 1   
    39   19   20 1   
    40   19   24 1   
    41   19   44 1   
    42   20   21 1   
    43   20   48 1   
    44   21   22 1   
    45   21   23 1   
    46   21   46 1   
    47   22   36 1   
    48   23   47 1   
    49   24   45 1   
@<TRIPOS>SUBSTRUCTURE
     1 VAM         1 TEMP              0 ****  ****    0 ROOT
