@<TRIPOS>MOLECULE
molecule
   48    49     1     0     0
SMALL
bcc


@<TRIPOS>ATOM
      1 O10          0.0000     0.0000     0.0000 oh         1 VAM      -0.603800
      2 C12          1.4290     0.0000     0.0000 c3         1 VAM       0.149400
      3 C11          1.9390     0.0000     1.4430 c3         1 VAM       0.161100
      4 O11          1.5610    -1.2210     2.0810 os         1 VAM      -0.430600
      5 C7           1.9670    -1.3150     3.4480 c3         1 VAM       0.329900
      6 O7           1.5180    -2.5560     3.9950 os         1 VAM      -0.407600
      7 CM           0.0960    -2.6790     4.0690 c3         1 VAM       0.130700
      8 C10          3.4640     0.1250     1.4460 c3         1 VAM       0.116100
      9 O9           3.8430     1.3720     0.8580 os         1 VAM      -0.396600
     10 C9           3.9710     0.0630     2.8900 c3         1 VAM       0.117100
     11 C8           3.4940    -1.2430     3.5320 c3         1 VAM       0.096100
     12 O8           3.9000    -1.2780     4.9010 oh         1 VAM      -0.600800
     13 O1           5.3990     0.1050     2.8970 oh         1 VAM      -0.556800
     14 O6           7.0600     3.8890    -1.7180 oh         1 VAM      -0.597800
     15 C2           8.4780     0.6430     1.6910 c3         1 VAM       0.148400
     16 O2           8.2020    -0.6440     2.2450 oh         1 VAM      -0.589800
     17 C3           7.4670     0.9500     0.5850 c3         1 VAM       0.164100
     18 O3           6.1570     1.0370     1.1480 os         1 VAM      -0.383600
     19 C4           7.8250     2.2820    -0.0790 c3         1 VAM      -0.002600
     20 C5           6.7740     2.6110    -1.1440 c3         1 VAM       0.150100
     21 C6           5.3900     2.6420    -0.4880 c3         1 VAM       0.115100
     22 C70          5.1260     1.2960     0.1920 c3         1 VAM       0.329900
     23 O5           4.3900     2.8800    -1.4800 oh         1 VAM      -0.596800
     24 S10          9.4580     2.1520    -0.8580 sh         1 VAM      -0.414900
     25 H10         -0.3140     0.1180    -0.8810 ho         1 VAM       0.403000
     26 H121         1.7900    -0.8850    -0.5110 h1         1 VAM       0.040200
     27 H122         1.7900     0.8850    -0.5110 h1         1 VAM       0.040200
     28 H11          1.5100     0.8350     1.9820 h1         1 VAM       0.060700
     29 HA           3.8930    -0.6920     0.8780 h1         1 VAM       0.067700
     30 H7           1.5380    -0.4930     4.0080 h2         1 VAM       0.041700
     31 H8           3.9230    -2.0830     3.0000 h1         1 VAM       0.068700
     32 HMC1        -0.1640    -3.4550     4.7790 h1         1 VAM       0.036367
     33 HMC2        -0.3320    -1.7370     4.3910 h1         1 VAM       0.036367
     34 HMC3        -0.2950    -2.9370     3.0920 h1         1 VAM       0.036367
     35 H9           3.5770     0.9040     3.4470 h1         1 VAM       0.051700
     36 H70          5.1130     0.4960    -0.5380 h2         1 VAM       0.045700
     37 H1           5.7030     0.3290     3.7610 ho         1 VAM       0.407000
     38 HB           4.3570    -2.0850     5.0720 ho         1 VAM       0.416000
     39 H6           7.1850     3.7940    -2.6480 ho         1 VAM       0.418000
     40 H2C1         8.3970     1.3950     2.4670 h1         1 VAM       0.041700
     41 H2C2         9.4820     0.6530     1.2830 h1         1 VAM       0.041700
     42 H2           9.0030    -1.0280     2.5620 ho         1 VAM       0.398000
     43 H3           7.4870     0.1620    -0.1570 h1         1 VAM       0.058700
     44 H4           7.8370     3.0650     0.6690 h1         1 VAM       0.087700
     45 HC          10.2190     3.1650    -0.4620 hs         1 VAM       0.228800
     46 HD           5.3660     3.4310     0.2540 h1         1 VAM       0.067700
     47 HE           3.9210     3.6700    -1.2710 ho         1 VAM       0.416000
     48 H5           6.7910     1.8500    -1.9140 h1         1 VAM       0.060700
@<TRIPOS>BOND
     1     1     2 1
     2     2     3 1
     3     3     4 1
     4     3     8 1
     5     4     5 1
     6     5     6 1
     7     5    11 1
     8     6     7 1
     9     8     9 1
    10     8    10 1
    11     9    22 1
    12    10    11 1
    13    10    13 1
    14    11    12 1
    15    14    20 1
    16    15    16 1
    17    15    17 1
    18    17    18 1
    19    17    19 1
    20    18    22 1
    21    19    20 1
    22    19    24 1
    23    20    21 1
    24    21    22 1
    25    21    23 1
    26     1    25 1
    27     2    26 1
    28     2    27 1
    29     3    28 1
    30     8    29 1
    31     5    30 1
    32    11    31 1
    33     7    32 1
    34     7    33 1
    35     7    34 1
    36    10    35 1
    37    22    36 1
    38    13    37 1
    39    12    38 1
    40    14    39 1
    41    20    48 1
    42    15    40 1
    43    15    41 1
    44    16    42 1
    45    17    43 1
    46    19    44 1
    47    24    45 1
    48    21    46 1
    49    23    47 1
@<TRIPOS>SUBSTRUCTURE
     1 VAM         1 TEMP              0 ****  ****    0 ROOT
