@<TRIPOS>MOLECULE
molecule
   25    26     1     0     0
SMALL
bcc


@<TRIPOS>ATOM
      1 N1          -1.2680     0.0010    -2.2330 n1         1 VAO      -0.391800
      2 C           -0.7170    -0.0000    -1.2390 cg         1 VAO       0.257800
      3 C1           0.0000     0.0000     0.0000 ca         1 VAO      -0.024000
      4 C6           1.3960     0.0000     0.0000 ca         1 VAO      -0.077000
      5 C5           2.0850     0.0000     1.2060 cp         1 VAO      -0.150500
      6 C4           1.3770     0.0000     2.4140 ca         1 VAO       0.124100
      7 O2           2.0480     0.0010     3.5940 oh         1 VAO      -0.425100
      8 C3          -0.0110    -0.0000     2.4060 ca         1 VAO      -0.225000
      9 C2          -0.6980     0.0050     1.2120 ca         1 VAO      -0.089000
     10 C7           3.5680     0.0010     1.2140 cp         1 VAO       0.398800
     11 N            4.2190     0.0010     2.3700 nb         1 VAO      -0.696000
     12 C11          5.5340     0.0010     2.4290 ca         1 VAO       0.365200
     13 C10          6.2990     0.0010     1.2780 ca         1 VAO      -0.189300
     14 C9           5.6590     0.0010     0.0330 ca         1 VAO      -0.057600
     15 C8           4.2640    -0.0050     0.0070 ca         1 VAO      -0.195300
     16 C12          6.4430     0.0010    -1.2230 c          1 VAO       0.880200
     17 O1           5.8720     0.0000    -2.2960 o          1 VAO      -0.825300
     18 O            7.7890     0.0020    -1.1770 o          1 VAO      -0.825300
     19 H6           2.1280    -0.2720    -0.7500 ha         1 VAO       0.182000
     20 H2          -1.7330     0.1930     1.4710 ha         1 VAO       0.138000
     21 H3          -0.5800    -0.2510     3.2930 ha         1 VAO       0.129000
     22 H8           3.5550    -0.0990    -0.8070 ha         1 VAO       0.142000
     23 H11          5.9330     0.1940     3.4180 h4         1 VAO       0.004100
     24 H10          7.3640     0.0870     1.4560 ha         1 VAO       0.154000
     25 H21          1.5300    -0.7630     3.7860 ho         1 VAO       0.396000
@<TRIPOS>BOND
     1     1     2 3
     2     2     3 1
     3     3     4 ar
     4     3     9 ar
     5     4     5 ar
     6     5     6 ar
     7     5    10 1
     8     6     7 1
     9     6     8 ar
    10     8     9 ar
    11    10    11 ar
    12    10    15 ar
    13    11    12 ar
    14    12    13 ar
    15    13    14 ar
    16    14    15 ar
    17    14    16 1
    18    16    17 1
    19    16    18 1
    20     4    19 1
    21     9    20 1
    22     8    21 1
    23    15    22 1
    24    12    23 1
    25    13    24 1
    26     7    25 1
@<TRIPOS>SUBSTRUCTURE
     1 VAO         1 TEMP              0 ****  ****    0 ROOT
