@<TRIPOS>MOLECULE
VAP
   36    37     1     0     0
SMALL
bcc


@<TRIPOS>ATOM
      1 C1           0.0000     0.0000     0.0000 ca         1 VAP      -0.167000
      2 C2           1.4010     0.0000     0.0000 ca         1 VAP      -0.074800
      3 C3           2.1040     0.0000     1.2200 ca         1 VAP      -0.099400
      4 C4           1.3990     0.0020     2.4210 ca         1 VAP       0.082100
      5 C5           0.0130     0.0030     2.4070 ca         1 VAP       0.108100
      6 C6          -0.6840     0.0020     1.1960 ca         1 VAP       0.108100
      7 C7           2.1540    -0.0030    -1.2530 cc         1 VAP      -0.010400
      8 C8           3.5110    -0.0040    -1.1950 cd         1 VAP      -0.210200
      9 C9           4.1680    -0.0040     0.0520 c          1 VAP       0.595700
     10 N10          3.4850    -0.0020     1.2100 n          1 VAP       0.102000
     11 O11          5.3870    -0.0050     0.0800 o          1 VAP      -0.696500
     12 C12          4.2170     0.0000     2.4790 c3         1 VAP      -0.001700
     13 O13          2.0690     0.0020     3.6050 os         1 VAP      -0.325900
     14 O14         -0.6730     0.0040     3.5810 os         1 VAP      -0.323900
     15 O15         -2.0450     0.0020     1.1990 os         1 VAP      -0.292900
     16 C16          1.4410    -0.0040    -2.5810 c3         1 VAP       0.054100
     17 C17         -2.6950     0.0020    -0.0730 c3         1 VAP       0.240700
     18 C18         -1.0930     1.2730     4.0860 c3         1 VAP       0.260700
     19 C19          2.2570    -1.2620     4.2440 c3         1 VAP       0.242700
     20 H1          -0.5440    -0.0010    -0.9370 ha         1 VAP       0.133000
     21 H8           4.0900    -0.0060    -2.1110 ha         1 VAP       0.137000
     22 H12          3.7620     0.7130     3.1570 h1         1 VAP       0.041367
     23 H12A         5.2480     0.2790     2.3010 h1         1 VAP       0.041367
     24 H12B         4.1810    -0.9900     2.9180 h1         1 VAP       0.041367
     25 H16          2.1690    -0.0050    -3.3820 hc         1 VAP       0.014033
     26 H16A         0.8200    -0.8880    -2.6560 hc         1 VAP       0.014033
     27 H16B         0.8200     0.8810    -2.6580 hc         1 VAP       0.014033
     28 H17         -2.4000     0.8830    -0.6300 h1         1 VAP      -0.001633
     29 H17A        -2.4110    -0.8860    -0.6240 h1         1 VAP      -0.001633
     30 H17B        -3.7690     0.0090     0.0710 h1         1 VAP      -0.001633
     31 H18         -2.1630     1.3780     3.9520 h1         1 VAP      -0.006633
     32 H18A        -0.8520     1.3400     5.1400 h1         1 VAP      -0.006633
     33 H18B        -0.5830     2.0620     3.5480 h1         1 VAP      -0.006633
     34 H19          3.1680    -1.2390     4.8300 h1         1 VAP      -0.000633
     35 H19A         1.4150    -1.4680     4.8940 h1         1 VAP      -0.000633
     36 H19B         2.3310    -2.0390     3.4930 h1         1 VAP      -0.000633
@<TRIPOS>BOND
     1     1     2 ar  
     2     1     6 ar  
     3     1    20 1   
     4     2     3 ar  
     5     2     7 1   
     6     3     4 ar  
     7     3    10 1   
     8     4     5 ar  
     9     4    13 1   
    10     5     6 ar  
    11     5    14 1   
    12     6    15 1   
    13     7     8 2   
    14     7    16 1   
    15     8     9 1   
    16     8    21 1   
    17     9    10 1   
    18     9    11 2   
    19    10    12 1   
    20    12    22 1   
    21    12    23 1   
    22    12    24 1   
    23    13    19 1   
    24    14    18 1   
    25    15    17 1   
    26    16    25 1   
    27    16    26 1   
    28    16    27 1   
    29    17    28 1   
    30    17    29 1   
    31    17    30 1   
    32    18    31 1   
    33    18    32 1   
    34    18    33 1   
    35    19    34 1   
    36    19    35 1   
    37    19    36 1   
@<TRIPOS>SUBSTRUCTURE
     1 VAP         1 TEMP              0 ****  ****    0 ROOT
