@<TRIPOS>MOLECULE
molecule
   33    36     1     0     0
SMALL
bcc


@<TRIPOS>ATOM
      1 O1           0.0000     0.0000     0.0000 oh         1 VAR      -0.477100
      2 C1           1.3580     0.0000     0.0000 ca         1 VAR       0.199100
      3 C2           2.0730     0.0000     1.1890 ca         1 VAR      -0.341300
      4 C3           3.4580    -0.0000     1.1470 ca         1 VAR       0.457200
      5 N1           4.1130    -0.0010     0.0050 nb         1 VAR      -0.709000
      6 C4           3.4840    -0.0010    -1.1650 ca         1 VAR       0.459800
      7 N2           3.9490    -0.0020    -2.4660 na         1 VAR      -0.220700
      8 C5           5.2240    -0.0030    -2.9700 cc         1 VAR       0.814400
      9 N3           6.2900    -0.0040    -2.1050 nv         1 VAR      -1.050500
     10 N4           5.4430    -0.0040    -4.2640 nd         1 VAR      -0.736000
     11 C6           4.4440    -0.0040    -5.1510 cd         1 VAR       0.434200
     12 C7           3.1500    -0.0020    -4.7310 cc         1 VAR      -0.259300
     13 C8           2.8850    -0.0010    -3.3450 cc         1 VAR       0.030700
     14 C9           1.6960    -0.0010    -2.6200 cd         1 VAR      -0.223000
     15 C10          2.0800    -0.0060    -1.2020 ca         1 VAR      -0.166100
     16 C11          0.3290    -0.0010    -3.1630 ca         1 VAR       0.607100
     17 C14         -0.0300     0.8840    -4.1920 ca         1 VAR      -0.444600
     18 C13         -1.3130     0.8500    -4.6680 ca         1 VAR       0.496200
     19 N7          -2.1780    -0.0120    -4.1500 nb         1 VAR      -0.813000
     20 C12         -1.8210    -0.8400    -3.1790 ca         1 VAR       0.944900
     21 N5          -0.5910    -0.8470    -2.6900 nb         1 VAR      -0.773000
     22 N6          -2.7560    -1.7220    -2.6660 nv         1 VAR      -0.991500
     23 HO1         -0.3140     0.6290     0.6280 ho         1 VAR       0.420000
     24 H2           1.5540     0.0010     2.1400 ha         1 VAR       0.144000
     25 H3           4.0150    -0.0000     2.0760 h4         1 VAR       0.027100
     26 HN3          6.6940     0.8630    -1.8090 hn         1 VAR       0.456300
     27 HN3A         6.6930    -0.8710    -1.8090 hn         1 VAR       0.456300
     28 H6           4.6660    -0.0050    -6.2110 h4         1 VAR       0.034100
     29 H7           2.3370    -0.0030    -5.4470 ha         1 VAR       0.162000
     30 H14          0.6930     1.5800    -4.6010 ha         1 VAR       0.143000
     31 H13         -1.6190     1.5210    -5.4620 h4         1 VAR       0.023100
     32 HN6         -2.4900    -2.3780    -1.9580 hn         1 VAR       0.449300
     33 HN6A        -3.6930    -1.7180    -3.0170 hn         1 VAR       0.449300
@<TRIPOS>BOND
     1     1     2 1
     2     2     3 ar
     3     2    15 ar
     4     3     4 ar
     5     4     5 ar
     6     5     6 ar
     7     6     7 1
     8     6    15 ar
     9     7     8 1
    10     7    13 1
    11     8     9 1
    12     8    10 2
    13    10    11 1
    14    11    12 2
    15    12    13 1
    16    13    14 2
    17    14    15 1
    18    14    16 1
    19    16    17 ar
    20    16    21 ar
    21    17    18 ar
    22    18    19 ar
    23    19    20 ar
    24    20    21 ar
    25    20    22 1
    26     1    23 1
    27     3    24 1
    28     4    25 1
    29     9    26 1
    30     9    27 1
    31    11    28 1
    32    12    29 1
    33    17    30 1
    34    18    31 1
    35    22    32 1
    36    22    33 1
@<TRIPOS>SUBSTRUCTURE
     1 VAR         1 TEMP              0 ****  ****    0 ROOT
