@<TRIPOS>MOLECULE
VAR
   33    36     1     0     0
SMALL
bcc


@<TRIPOS>ATOM
      1 O1           0.0000     0.0000     0.0000 oh         1 VAR      -0.459100
      2 C1           1.3580     0.0000     0.0000 ca         1 VAR       0.217100
      3 C2           2.0730     0.0000     1.1890 ca         1 VAR      -0.319300
      4 C3           3.4580    -0.0000     1.1470 ca         1 VAR       0.430200
      5 N1           4.1130    -0.0010     0.0050 nb         1 VAR      -0.577000
      6 C4           3.4840    -0.0010    -1.1650 ca         1 VAR       0.221800
      7 N2           3.9490    -0.0020    -2.4660 na         1 VAR       0.312300
      8 C5           5.2240    -0.0030    -2.9700 cc         1 VAR       0.441400
      9 N3           6.2900    -0.0040    -2.1050 nv         1 VAR      -0.621500
     10 N4           5.4430    -0.0040    -4.2640 nd         1 VAR      -0.613000
     11 C6           4.4440    -0.0040    -5.1510 cd         1 VAR       0.402200
     12 C7           3.1500    -0.0020    -4.7310 cc         1 VAR      -0.198300
     13 C8           2.8850    -0.0010    -3.3450 cc         1 VAR      -0.164300
     14 C9           1.6960    -0.0010    -2.6200 cd         1 VAR      -0.222000
     15 C10          2.0800    -0.0060    -1.2020 ca         1 VAR      -0.161100
     16 C11          0.3290    -0.0010    -3.1630 ca         1 VAR       0.579100
     17 C14         -0.0300     0.8840    -4.1920 ca         1 VAR      -0.429600
     18 C13         -1.3130     0.8500    -4.6680 ca         1 VAR       0.490200
     19 N7          -2.1780    -0.0120    -4.1500 nb         1 VAR      -0.716000
     20 C12         -1.8210    -0.8400    -3.1790 ca         1 VAR       0.711900
     21 N5          -0.5910    -0.8470    -2.6900 nb         1 VAR      -0.673000
     22 N6          -2.7560    -1.7220    -2.6660 nv         1 VAR      -0.503500
     23 HO1         -0.3140     0.6290     0.6280 ho         1 VAR       0.399000
     24 H2           1.5540     0.0010     2.1400 ha         1 VAR       0.122000
     25 H3           4.0150    -0.0000     2.0760 h4         1 VAR      -0.019900
     26 HN3          6.6940     0.8630    -1.8090 hn         1 VAR       0.288300
     27 HN3A         6.6930    -0.8710    -1.8090 hn         1 VAR       0.288300
     28 H6           4.6660    -0.0050    -6.2110 h4         1 VAR      -0.011900
     29 H7           2.3370    -0.0030    -5.4470 ha         1 VAR       0.132000
     30 H14          0.6930     1.5800    -4.6010 ha         1 VAR       0.127000
     31 H13         -1.6190     1.5210    -5.4620 h4         1 VAR      -0.022900
     32 HN6         -2.4900    -2.3780    -1.9580 hn         1 VAR       0.274300
     33 HN6A        -3.6930    -1.7180    -3.0170 hn         1 VAR       0.274300
@<TRIPOS>BOND
     1     1     2 1   
     2     1    23 1   
     3     2     3 ar  
     4     2    15 ar  
     5     3     4 ar  
     6     3    24 1   
     7     4     5 ar  
     8     4    25 1   
     9     5     6 ar  
    10     6     7 1   
    11     6    15 ar  
    12     7     8 1   
    13     7    13 1   
    14     8     9 1   
    15     8    10 2   
    16     9    26 1   
    17     9    27 1   
    18    10    11 1   
    19    11    12 2   
    20    11    28 1   
    21    12    13 1   
    22    12    29 1   
    23    13    14 2   
    24    14    15 1   
    25    14    16 1   
    26    16    17 ar  
    27    16    21 ar  
    28    17    18 ar  
    29    17    30 1   
    30    18    19 ar  
    31    18    31 1   
    32    19    20 ar  
    33    20    21 ar  
    34    20    22 1   
    35    22    32 1   
    36    22    33 1   
@<TRIPOS>SUBSTRUCTURE
     1 VAR         1 TEMP              0 ****  ****    0 ROOT
