@<TRIPOS>MOLECULE
molecule
   27    27     1     0     0
SMALL
bcc


@<TRIPOS>ATOM
      1 CAJ          1.5300     0.0000     0.0000 c3         1 VAU      -0.125100
      2 CAR          0.0000     0.0000     0.0000 c3         1 VAU       0.152800
      3 OAG         -0.4760     0.0000     1.3480 oh         1 VAU      -0.565800
      4 CAL         -0.5090     1.2500    -0.7200 c3         1 VAU      -0.087400
      5 CAQ         -2.0400     1.2510    -0.7190 c3         1 VAU       0.057800
      6 CAN         -2.5420     2.4820    -1.4280 c          1 VAU       0.867600
      7 OAC         -3.7590     2.9720    -1.1420 o          1 VAU      -0.837300
      8 OAB         -1.8490     3.0280    -2.2540 o          1 VAU      -0.837300
      9 OAF         -2.5150     1.2500     0.6290 oh         1 VAU      -0.605800
     10 CAK         -2.5510     0.0020    -1.4410 c3         1 VAU      -0.076400
     11 CAO         -2.0410    -1.2470    -0.7200 c3         1 VAU       0.128100
     12 OAD         -2.5180    -2.4140    -1.3940 oh         1 VAU      -0.633800
     13 CAP         -0.5110    -1.2490    -0.7210 c3         1 VAU       0.154100
     14 OAE         -0.0340    -2.4150    -0.0490 oh         1 VAU      -0.608800
     15 H1           1.8910    -0.1170    -1.0150 hc         1 VAU       0.035367
     16 H2           1.8910     0.9370     0.4060 hc         1 VAU       0.035367
     17 H3           0.2430     0.1660     1.9350 ho         1 VAU       0.380000
     18 H4          -0.1500     1.2490    -1.7410 hc         1 VAU       0.056200
     19 H5          -0.1490     2.1330    -0.2060 hc         1 VAU       0.056200
     20 H7          -2.7530     2.1280     0.8790 ho         1 VAU       0.410000
     21 H8          -2.1870     0.0030    -2.4610 hc         1 VAU       0.056200
     22 H9          -3.6340     0.0030    -1.4380 hc         1 VAU       0.056200
     23 H10         -2.3990    -1.2430     0.3020 h1         1 VAU       0.075700
     24 H11         -3.2940    -2.7310    -0.9630 ho         1 VAU       0.395000
     25 H12         -0.1530    -1.2440    -1.7440 h1         1 VAU       0.037700
     26 H13          0.2950    -3.0310    -0.6830 ho         1 VAU       0.389000
     27 H14          1.8910    -0.8200     0.6080 hc         1 VAU       0.035367
@<TRIPOS>BOND
     1    14    13 1
     2    12    11 1
     3    13     2 1
     4    13    11 1
     5     1     2 1
     6     3     2 1
     7     2     4 1
     8    11    10 1
     9     4     5 1
    10    10     5 1
    11     9     5 1
    12     5     6 1
    13     6     8 1
    14     6     7 1
    15     1    15 1
    16     1    16 1
    17     3    17 1
    18     4    18 1
    19     4    19 1
    20     9    20 1
    21    10    21 1
    22    10    22 1
    23    11    23 1
    24    12    24 1
    25    13    25 1
    26    14    26 1
    27     1    27 1
@<TRIPOS>SUBSTRUCTURE
     1 VAU         1 TEMP              0 ****  ****    0 ROOT
