@<TRIPOS>MOLECULE
VAU
   30    30     1     0     0
SMALL
bcc


@<TRIPOS>ATOM
      1 CAJ         1.5730   -0.0200   -0.0980 c3        1 VAU      0.102800
      2 CAR         0.0280   -0.0870    0.0290 c3        1 VAU      0.147800
      3 OAG        -0.2320   -0.2450    1.4170 oh        1 VAU     -0.654800
      4 CAL        -0.5400    1.2130   -0.5390 c3        1 VAU     -0.111400
      5 CAQ        -2.0670    1.2270   -0.6030 c3        1 VAU     -0.002200
      6 CAN        -2.4760    2.4930   -1.4580 c         1 VAU      0.913600
      7 OAC        -3.2060    3.3240   -0.8630 o         1 VAU     -0.792300
      8 OAB        -2.0210    2.5520   -2.6260 o         1 VAU     -0.792300
      9 OAF        -2.5730    1.3060    0.7200 oh        1 VAU     -0.663800
     10 CAK        -2.6320   -0.0180   -1.2760 c3        1 VAU     -0.107400
     11 CAO        -2.0660   -1.2900   -0.6690 c3        1 VAU      0.115100
     12 OAD        -2.5470   -2.4760   -1.2730 oh        1 VAU     -0.609800
     13 CAP        -0.5290   -1.2780   -0.7770 c3        1 VAU      0.088100
     14 OAE         0.0490   -2.4910   -0.3130 oh        1 VAU     -0.673800
     15 NXT         2.2370   -1.1190    0.6590 n4        1 VAU     -0.832600
     16 HAJ1        1.9330    0.9600    0.3240 hx        1 VAU      0.103700
     17 HAJ2        1.8600   -0.1010   -1.1820 hx        1 VAU      0.103700
     18 HXT1        1.8620   -1.1190    1.6170 hn        1 VAU      0.462133
     19 HXT2        3.2470   -0.9950    0.6740 hn        1 VAU      0.462133
     20 HAG        -1.0750    0.1980    1.6170 ho        1 VAU      0.482000
     21 HAL1       -0.1580    1.3730   -1.5830 hc        1 VAU      0.081700
     22 HAL2       -0.2080    2.0680    0.1050 hc        1 VAU      0.081700
     23 HAP        -0.2240   -1.1630   -1.8560 h1        1 VAU      0.061700
     24 HAF        -3.0990    2.1250    0.7770 ho        1 VAU      0.456000
     25 HAK1       -2.3950    0.0370   -2.3720 hc        1 VAU      0.079200
     26 HAK2       -3.7460   -0.0200   -1.1570 hc        1 VAU      0.079200
     27 HAO        -2.3630   -1.3790    0.4160 h1        1 VAU      0.093700
     28 HAD        -2.6680   -2.3010   -2.2150 ho        1 VAU      0.413000
     29 HAE        -0.6590   -3.1470   -0.2340 ho        1 VAU      0.453000
     30 HXT3        1.9930   -2.0230    0.2290 hn        1 VAU      0.462133
@<TRIPOS>BOND
     1    1    2 1   
     2    1   15 1   
     3    1   16 1   
     4    1   17 1   
     5    2    3 1   
     6    2    4 1   
     7    2   13 1   
     8    3   20 1   
     9    4    5 1   
    10    4   21 1   
    11    4   22 1   
    12    5    6 1   
    13    5    9 1   
    14    5   10 1   
    15    6    7 1   
    16    6    8 1   
    17    9   24 1   
    18   10   11 1   
    19   10   25 1   
    20   10   26 1   
    21   11   12 1   
    22   11   13 1   
    23   11   27 1   
    24   12   28 1   
    25   13   14 1   
    26   13   23 1   
    27   14   29 1   
    28   15   18 1   
    29   15   19 1   
    30   15   30 1   
@<TRIPOS>SUBSTRUCTURE
     1 VAU         1 TEMP              0 ****  ****    0 ROOT
