@<TRIPOS>MOLECULE
VAW
   74    77     1     0     0
SMALL
bcc


@<TRIPOS>ATOM
      1 CBD          0.0000     0.0000     0.0000 ca         1 VAW      -0.095800
      2 CAM          1.3960     0.0000     0.0000 ca         1 VAW      -0.042000
      3 CAK          2.0750     0.0000     1.1850 ca         1 VAW      -0.134000
      4 CAJ          1.3870    -0.0010     2.3920 ca         1 VAW      -0.085000
      5 CAL          0.0100    -0.0010     2.4150 ca         1 VAW      -0.105000
      6 CBC         -0.7020    -0.0010     1.2190 ca         1 VAW      -0.226200
      7 NAU         -2.0450     0.0000     0.9150 na         1 VAW       0.355600
      8 CAN         -2.2140     0.0010    -0.4420 cc         1 VAW      -0.271100
      9 CBB         -1.0190     0.0060    -1.0530 cd         1 VAW      -0.145400
     10 CAR         -0.7710     0.0160    -2.5390 c3         1 VAW       0.056800
     11 CAP         -0.6990    -1.2090    -2.9760 c3         1 VAW       0.141800
     12 NAT         -0.4580    -1.2000    -4.4240 n7         1 VAW      -0.599200
     13 CAQ         -0.2440    -2.5620    -4.9320 c3         1 VAW       0.130800
     14 CAS          0.0780    -2.5100    -6.1940 c3         1 VAW      -0.081400
     15 CBJ          0.2380    -3.9310    -6.7380 c3         1 VAW       0.051500
     16 CBH         -1.0730    -4.7010    -6.5480 c3         1 VAW      -0.051500
     17 CAH         -2.2290    -3.8600    -7.0270 c2         1 VAW      -0.140200
     18 CAA         -3.1860    -3.5290    -6.1950 c2         1 VAW      -0.166000
     19 CBA          0.5800    -3.8720    -8.2020 ce         1 VAW      -0.341400
     20 CAZ          1.5190    -2.9100    -8.6440 c          1 VAW       0.742300
     21 OAC          1.7240    -2.7620    -9.8340 o          1 VAW      -0.617000
     22 OAV          2.1890    -2.1580    -7.7450 os         1 VAW      -0.401900
     23 CAB          3.0360    -1.1310    -8.2630 c3         1 VAW       0.257700
     24 CAI          0.0300    -4.6940    -9.0990 c2         1 VAW       0.195100
     25 OAW         -0.8760    -5.6310    -8.7760 os         1 VAW      -0.324900
     26 CBK         -0.9960    -5.9930    -7.3740 c3         1 VAW       0.392900
     27 O1           0.1460    -6.7530    -6.9730 os         1 VAW      -0.397600
     28 C1           0.2440    -8.0310    -7.6050 c3         1 VAW       0.386900
     29 O5          -0.8540    -8.8500    -7.1970 os         1 VAW      -0.419600
     30 C5          -0.8660   -10.1490    -7.7950 c3         1 VAW       0.176100
     31 C6          -2.0940   -10.9220    -7.3090 c3         1 VAW       0.224400
     32 O6          -3.2790   -10.2780    -7.7790 oh         1 VAW      -0.583800
     33 C4           0.4050   -10.9040    -7.3960 c3         1 VAW       0.135100
     34 O4           0.4220   -12.1810    -8.0390 oh         1 VAW      -0.582800
     35 C3           1.6290   -10.0940    -7.8320 c3         1 VAW       0.144100
     36 O3           2.8200   -10.7570    -7.3990 oh         1 VAW      -0.587800
     37 C2           1.5590    -8.7010    -7.1990 c3         1 VAW       0.146100
     38 O2           2.6580    -7.9130    -7.6570 oh         1 VAW      -0.571800
     39 HAM          1.9400     0.0010    -0.9370 ha         1 VAW       0.104000
     40 HAK          3.1580     0.0000     1.1840 ha         1 VAW       0.102000
     41 HAJ          1.9390    -0.0010     3.3240 ha         1 VAW       0.099000
     42 HAL         -0.5180    -0.0020     3.3610 ha         1 VAW       0.098000
     43 HAU         -2.7870    -0.0040     1.5870 hn         1 VAW       0.112700
     44 HAN         -3.1710    -0.0000    -0.9500 h4         1 VAW       0.140000
     45 HAR1        -1.5840     0.5300    -3.0380 hc         1 VAW       0.022700
     46 HAR2         0.1610     0.5290    -2.7460 hc         1 VAW       0.022700
     47 HAP1         0.1140    -1.7230    -2.4770 h1         1 VAW       0.011200
     48 HAP2        -1.6310    -1.7210    -2.7680 h1         1 VAW       0.011200
     49 HAT         -1.2420    -0.7890    -4.8910 hn         1 VAW       0.253800
     50 HAQ1         0.5560    -3.0340    -4.3740 h1         1 VAW       0.014200
     51 HAQ2        -1.1540    -3.1380    -4.8150 h1         1 VAW       0.014200
     52 HAS1        -0.7020    -1.9990    -6.7450 hc         1 VAW       0.052700
     53 HAS2         1.0120    -1.9730    -6.3070 hc         1 VAW       0.052700
     54 HBJ          1.0330    -4.4390    -6.2050 hc         1 VAW       0.048700
     55 HBH         -1.2020    -4.9460    -5.5010 hc         1 VAW       0.054700
     56 HAH         -2.2690    -3.5300    -8.0570 ha         1 VAW       0.117000
     57 HBK         -1.8980    -6.5730    -7.2240 h2         1 VAW       0.056700
     58 HAA1        -3.1460    -3.8600    -5.1640 ha         1 VAW       0.087500
     59 HAA2        -4.0170    -2.9250    -6.5390 ha         1 VAW       0.087500
     60 HAI          0.3280    -4.6010   -10.1370 h4         1 VAW       0.150000
     61 HAB1         2.4440    -0.4320    -8.8410 h1         1 VAW       0.000033
     62 HAB2         3.7940    -1.5740    -8.8980 h1         1 VAW       0.000033
     63 HAB3         3.5130    -0.6090    -7.4420 h1         1 VAW       0.000033
     64 H1           0.2210    -7.9100    -8.6810 h2         1 VAW       0.018700
     65 H2           1.5980    -8.7930    -6.1200 h1         1 VAW       0.027700
     66 H5          -0.9000   -10.0480    -8.8730 h1         1 VAW       0.031700
     67 H6C1        -2.1010   -10.9450    -6.2260 h1         1 VAW      -0.000800
     68 H6C2        -2.0570   -11.9350    -7.6920 h1         1 VAW      -0.000800
     69 H4           0.4230   -11.0340    -6.3210 h1         1 VAW       0.024700
     70 H6          -4.0120   -10.8640    -7.6880 ho         1 VAW       0.389000
     71 HA           0.7010   -12.8390    -7.4240 ho         1 VAW       0.400000
     72 H3           1.6330   -10.0000    -8.9110 h1         1 VAW       0.027700
     73 HB           3.3000   -11.0630    -8.1500 ho         1 VAW       0.403000
     74 HC           3.3450    -7.9270    -7.0110 ho         1 VAW       0.402000
@<TRIPOS>BOND
     1     1     2 ar  
     2     1     6 ar  
     3     1     9 1   
     4     2     3 ar  
     5     2    39 1   
     6     3     4 ar  
     7     3    40 1   
     8     4     5 ar  
     9     4    41 1   
    10     5     6 ar  
    11     5    42 1   
    12     6     7 1   
    13     7     8 1   
    14     7    43 1   
    15     8     9 2   
    16     8    44 1   
    17     9    10 1   
    18    10    11 1   
    19    10    45 1   
    20    10    46 1   
    21    11    12 1   
    22    11    47 1   
    23    11    48 1   
    24    12    13 1   
    25    12    49 1   
    26    13    14 1   
    27    13    50 1   
    28    13    51 1   
    29    14    15 1   
    30    14    52 1   
    31    14    53 1   
    32    15    16 1   
    33    15    19 1   
    34    15    54 1   
    35    16    17 1   
    36    16    26 1   
    37    16    55 1   
    38    17    18 2   
    39    17    56 1   
    40    18    58 1   
    41    18    59 1   
    42    19    20 1   
    43    19    24 2   
    44    20    21 2   
    45    20    22 1   
    46    22    23 1   
    47    23    61 1   
    48    23    62 1   
    49    23    63 1   
    50    24    25 1   
    51    24    60 1   
    52    25    26 1   
    53    26    27 1   
    54    26    57 1   
    55    27    28 1   
    56    28    29 1   
    57    28    37 1   
    58    28    64 1   
    59    29    30 1   
    60    30    31 1   
    61    30    33 1   
    62    30    66 1   
    63    31    32 1   
    64    31    67 1   
    65    31    68 1   
    66    32    70 1   
    67    33    34 1   
    68    33    35 1   
    69    33    69 1   
    70    34    71 1   
    71    35    36 1   
    72    35    37 1   
    73    35    72 1   
    74    36    73 1   
    75    37    38 1   
    76    37    65 1   
    77    38    74 1   
@<TRIPOS>SUBSTRUCTURE
     1 VAW         1 TEMP              0 ****  ****    0 ROOT
