@<TRIPOS>MOLECULE
molecule
   74    77     1     0     0
SMALL
bcc


@<TRIPOS>ATOM
      1 CBD          0.0000     0.0000     0.0000 ca         1 VAW      -0.097800
      2 CAM          1.3960     0.0000     0.0000 ca         1 VAW      -0.077000
      3 CAK          2.0750     0.0000     1.1850 ca         1 VAW      -0.159000
      4 CAJ          1.3870    -0.0010     2.3920 ca         1 VAW      -0.108000
      5 CAL          0.0100    -0.0010     2.4150 ca         1 VAW      -0.145000
      6 CBC         -0.7020    -0.0010     1.2190 ca         1 VAW      -0.039200
      7 NAU         -2.0450     0.0000     0.9150 na         1 VAW      -0.183400
      8 CAN         -2.2140     0.0010    -0.4420 cc         1 VAW      -0.101100
      9 CBB         -1.0190     0.0060    -1.0530 cd         1 VAW      -0.155400
     10 CAR         -0.7710     0.0160    -2.5390 c3         1 VAW      -0.002200
     11 CAP         -0.6990    -1.2090    -2.9760 c3         1 VAW       0.165800
     12 NAT         -0.4580    -1.2000    -4.4240 n7         1 VAW      -0.825200
     13 CAQ         -0.2440    -2.5620    -4.9320 c3         1 VAW       0.164800
     14 CAS          0.0780    -2.5100    -6.1940 c3         1 VAW      -0.093400
     15 CBJ          0.2380    -3.9310    -6.7380 c3         1 VAW       0.000500
     16 CBH         -1.0730    -4.7010    -6.5480 c3         1 VAW      -0.060500
     17 CAH         -2.2290    -3.8600    -7.0270 c2         1 VAW      -0.160200
     18 CAA         -3.1860    -3.5290    -6.1950 c2         1 VAW      -0.220000
     19 CBA          0.5800    -3.8720    -8.2020 ce         1 VAW      -0.297400
     20 CAZ          1.5190    -2.9100    -8.6440 c          1 VAW       0.670300
     21 OAC          1.7240    -2.7620    -9.8340 o          1 VAW      -0.579000
     22 OAV          2.1890    -2.1580    -7.7450 os         1 VAW      -0.417900
     23 CAB          3.0360    -1.1310    -8.2630 c3         1 VAW       0.133700
     24 CAI          0.0300    -4.6940    -9.0990 c2         1 VAW       0.144100
     25 OAW         -0.8760    -5.6310    -8.7760 os         1 VAW      -0.338900
     26 CBK         -0.9960    -5.9930    -7.3740 c3         1 VAW       0.337900
     27 O1           0.1460    -6.7530    -6.9730 os         1 VAW      -0.397600
     28 C1           0.2440    -8.0310    -7.6050 c3         1 VAW       0.349900
     29 O5          -0.8540    -8.8500    -7.1970 os         1 VAW      -0.434600
     30 C5          -0.8660   -10.1490    -7.7950 c3         1 VAW       0.154100
     31 C6          -2.0940   -10.9220    -7.3090 c3         1 VAW       0.150400
     32 O6          -3.2790   -10.2780    -7.7790 oh         1 VAW      -0.599800
     33 C4           0.4050   -10.9040    -7.3960 c3         1 VAW       0.096100
     34 O4           0.4220   -12.1810    -8.0390 oh         1 VAW      -0.602800
     35 C3           1.6290   -10.0940    -7.8320 c3         1 VAW       0.101100
     36 O3           2.8200   -10.7570    -7.3990 oh         1 VAW      -0.606800
     37 C2           1.5590    -8.7010    -7.1990 c3         1 VAW       0.123100
     38 O2           2.6580    -7.9130    -7.6570 oh         1 VAW      -0.589800
     39 HAM          1.9400     0.0010    -0.9370 ha         1 VAW       0.133000
     40 HAK          3.1580     0.0000     1.1840 ha         1 VAW       0.128000
     41 HAJ          1.9390    -0.0010     3.3240 ha         1 VAW       0.129000
     42 HAL         -0.5180    -0.0020     3.3610 ha         1 VAW       0.124000
     43 HAU         -2.7870    -0.0040     1.5870 hn         1 VAW       0.294700
     44 HAN         -3.1710     0.0000    -0.9500 h4         1 VAW       0.164000
     45 HAR1        -1.5840     0.5300    -3.0380 hc         1 VAW       0.052200
     46 HAR2         0.1610     0.5290    -2.7460 hc         1 VAW       0.052200
     47 HAP1         0.1140    -1.7230    -2.4770 h1         1 VAW       0.031700
     48 HAP2        -1.6310    -1.7210    -2.7680 h1         1 VAW       0.031700
     49 HAT         -1.2420    -0.7890    -4.8910 hn         1 VAW       0.348800
     50 HAQ1         0.5560    -3.0340    -4.3740 h1         1 VAW       0.027700
     51 HAQ2        -1.1540    -3.1380    -4.8150 h1         1 VAW       0.027700
     52 HAS1         1.0120    -1.9730    -6.3070 hc         1 VAW       0.071200
     53 HAS2        -0.7020    -1.9990    -6.7450 hc         1 VAW       0.071200
     54 HBJ          1.0330    -4.4390    -6.2050 hc         1 VAW       0.079700
     55 HBH         -1.2020    -4.9460    -5.5010 hc         1 VAW       0.079700
     56 HAH         -2.2690    -3.5300    -8.0570 ha         1 VAW       0.139000
     57 HBK         -1.8980    -6.5730    -7.2240 h2         1 VAW       0.110700
     58 HAA1        -4.0160    -2.9250    -6.5390 ha         1 VAW       0.115000
     59 HAA2        -3.1460    -3.8600    -5.1650 ha         1 VAW       0.115000
     60 HAI          0.3290    -4.6010   -10.1360 h4         1 VAW       0.194000
     61 HAB1         3.7960    -1.5740    -8.8960 h1         1 VAW       0.045700
     62 HAB2         3.5110    -0.6070    -7.4420 h1         1 VAW       0.045700
     63 HAB3         2.4450    -0.4330    -8.8430 h1         1 VAW       0.045700
     64 H1           0.2210    -7.9100    -8.6810 h2         1 VAW       0.058700
     65 H2           1.5980    -8.7930    -6.1200 h1         1 VAW       0.064700
     66 H5          -0.9000   -10.0480    -8.8730 h1         1 VAW       0.065700
     67 H6C1        -2.1010   -10.9450    -6.2260 h1         1 VAW       0.038700
     68 H6C2        -2.0570   -11.9350    -7.6920 h1         1 VAW       0.038700
     69 H4           0.4230   -11.0340    -6.3210 h1         1 VAW       0.059700
     70 H6          -4.0010   -10.8830    -7.7420 ho         1 VAW       0.404000
     71 HA           0.6640   -12.8440    -7.4140 ho         1 VAW       0.414000
     72 H3           1.6330   -10.0000    -8.9110 h1         1 VAW       0.062700
     73 HB           3.2710   -11.1120    -8.1470 ho         1 VAW       0.417000
     74 HC           3.4270    -8.1220    -7.1520 ho         1 VAW       0.418000
@<TRIPOS>BOND
     1     1     2 ar
     2     1     6 ar
     3     1     9 1
     4     2     3 ar
     5     3     4 ar
     6     4     5 ar
     7     5     6 ar
     8     6     7 1
     9     7     8 1
    10     8     9 2
    11     9    10 1
    12    10    11 1
    13    11    12 1
    14    12    13 1
    15    13    14 1
    16    14    15 1
    17    15    16 1
    18    15    19 1
    19    16    17 1
    20    16    26 1
    21    17    18 2
    22    19    20 1
    23    19    24 2
    24    20    21 2
    25    20    22 1
    26    22    23 1
    27    24    25 1
    28    25    26 1
    29    26    27 1
    30    27    28 1
    31    28    29 1
    32    28    37 1
    33    29    30 1
    34    30    31 1
    35    30    33 1
    36    31    32 1
    37    33    34 1
    38    33    35 1
    39    35    36 1
    40    35    37 1
    41    37    38 1
    42     2    39 1
    43     3    40 1
    44     4    41 1
    45     5    42 1
    46     7    43 1
    47     8    44 1
    48    10    45 1
    49    10    46 1
    50    11    47 1
    51    11    48 1
    52    12    49 1
    53    13    50 1
    54    13    51 1
    55    14    52 1
    56    14    53 1
    57    15    54 1
    58    16    55 1
    59    17    56 1
    60    26    57 1
    61    18    58 1
    62    18    59 1
    63    24    60 1
    64    23    61 1
    65    23    62 1
    66    23    63 1
    67    28    64 1
    68    37    65 1
    69    30    66 1
    70    31    67 1
    71    31    68 1
    72    33    69 1
    73    32    70 1
    74    34    71 1
    75    35    72 1
    76    36    73 1
    77    38    74 1
@<TRIPOS>SUBSTRUCTURE
     1 VAW         1 TEMP              0 ****  ****    0 ROOT
