@<TRIPOS>MOLECULE
molecule
   47    46     1     0     0
SMALL
bcc


@<TRIPOS>ATOM
      1 SAQ          0.0000     0.0000     0.0000 ss         1 VAZ      -0.218200
      2 CAY          1.8130     0.0000     0.0000 c3         1 VAZ       0.241200
      3 OAJ          2.2900     0.0000     1.3470 oh         1 VAZ      -0.611800
      4 CAZ          2.3240     1.2480    -0.7210 c3         1 VAZ       0.051100
      5 CAU          1.8220     1.2480    -2.1430 c          1 VAZ       0.877600
      6 OAI          0.5060     1.3500    -2.3890 o          1 VAZ      -0.805800
      7 OAE          2.6030     1.1560    -3.0600 o          1 VAZ      -0.805800
      8 OAP          3.7760     1.2480    -0.7220 os         1 VAZ      -0.398900
      9 CAV          4.3850     2.4440    -0.7230 c          1 VAZ       0.645100
     10 OAF          3.7280     3.4570    -0.7220 o          1 VAZ      -0.554000
     11 CAX          5.8910     2.5230    -0.7230 c3         1 VAZ       0.088700
     12 CAN          6.4380     1.8300     0.5270 c3         1 VAZ      -0.052100
     13 SAR          8.2500     1.9240     0.5270 s4         1 VAZ       0.143900
     14 OAG          8.7570     1.2810     1.6870 o          1 VAZ      -0.486200
     15 NAO          6.3070     3.9280    -0.7230 ns         1 VAZ      -0.556900
     16 CAS          7.5120     4.2740    -1.2160 c          1 VAZ       0.659100
     17 OAC          8.2520     3.4220    -1.6600 o          1 VAZ      -0.640100
     18 CAL          7.9390     5.7180    -1.2170 c3         1 VAZ      -0.151400
     19 CAK          9.3380     5.8360    -1.8270 c3         1 VAZ      -0.085400
     20 CB           9.7720     7.3030    -1.8270 c3         1 VAZ      -0.094400
     21 CA          11.1700     7.4220    -2.4380 c3         1 VAZ      -0.015500
     22 C           11.5480     8.8760    -2.5510 c          1 VAZ       0.870600
     23 O           12.2730     9.3780    -1.7250 o          1 VAZ      -0.781800
     24 OXT         11.0780     9.6140    -3.5690 o          1 VAZ      -0.781800
     25 N           12.1390     6.7290    -1.5770 nz         1 VAZ      -0.792600
     26 CAA         -0.4080    -1.6020     0.7470 c3         1 VAZ      -0.051000
     27 HAA1        -1.4530    -1.8270     0.5700 h1         1 VAZ       0.043367
     28 HAA2         0.2080    -2.3750     0.3040 h1         1 VAZ       0.043367
     29 HAA3        -0.2240    -1.5600     1.8140 h1         1 VAZ       0.043367
     30 HAJ          2.5990    -0.8620     1.5710 ho         1 VAZ       0.385000
     31 HAZ          1.9630     2.1330    -0.2110 h1         1 VAZ       0.086700
     32 HAX          6.2780     2.0310    -1.6070 h1         1 VAZ       0.103700
     33 HAN1         6.1300     0.7910     0.5280 h1         1 VAZ       0.096200
     34 HAN2         6.0510     2.3220     1.4110 h1         1 VAZ       0.096200
     35 HAO          5.7040     4.6280    -0.3390 hn         1 VAZ       0.342500
     36 HAL1         7.2390     6.3010    -1.8030 hc         1 VAZ       0.072200
     37 HAL2         7.9560     6.0900    -0.2000 hc         1 VAZ       0.072200
     38 HAK1         9.3210     5.4640    -2.8440 hc         1 VAZ       0.046200
     39 HAK2        10.0380     5.2520    -1.2410 hc         1 VAZ       0.046200
     40 HBC1         9.0720     7.8870    -2.4130 hc         1 VAZ       0.083700
     41 HBC2         9.7890     7.6750    -0.8100 hc         1 VAZ       0.083700
     42 HA          11.1740     6.9700    -3.4220 hx         1 VAZ       0.106700
     43 HN1         11.9130     6.8980    -0.6170 hn         1 VAZ       0.439467
     44 HN2         13.0600     7.0720    -1.7680 hn         1 VAZ       0.439467
     45 HAY          2.1740    -0.8850    -0.5100 h2         1 VAZ       0.053700
     46 HAR          8.9180     1.8510    -0.6180 hs         1 VAZ       0.182000
     47 HN3         12.1170     5.7480    -1.7730 hn         1 VAZ       0.439467
@<TRIPOS>BOND
     1     1     2 1
     2     1    26 1
     3     2     3 1
     4     2     4 1
     5     4     5 1
     6     4     8 1
     7     5     6 1
     8     5     7 1
     9     8     9 1
    10     9    10 2
    11     9    11 1
    12    11    12 1
    13    11    15 1
    14    12    13 1
    15    13    14 2
    16    15    16 1
    17    16    17 2
    18    16    18 1
    19    18    19 1
    20    19    20 1
    21    20    21 1
    22    21    22 1
    23    21    25 1
    24    22    23 1
    25    22    24 1
    26    26    27 1
    27    26    28 1
    28    26    29 1
    29     3    30 1
    30     4    31 1
    31    11    32 1
    32    12    33 1
    33    12    34 1
    34    15    35 1
    35    18    36 1
    36    18    37 1
    37    19    38 1
    38    19    39 1
    39    20    40 1
    40    20    41 1
    41    21    42 1
    42    25    43 1
    43    25    44 1
    44     2    45 1
    45    13    46 1
    46    47    25 1
@<TRIPOS>SUBSTRUCTURE
     1 VAZ         1 TEMP              0 ****  ****    0 ROOT
