@<TRIPOS>MOLECULE
molecule
   26    27     1     0     0
SMALL
bcc


@<TRIPOS>ATOM
      1 N            0.0000     0.0000     0.0000 nv         1 VBC      -0.991200
      2 C            1.3960     0.0000     0.0000 ca         1 VBC       0.132600
      3 O            7.8890     0.0160     3.5270 o          1 VBC      -0.836800
      4 C1           2.0900     0.0000     1.2040 ca         1 VBC      -0.146000
      5 C10          6.3490    -0.0070    -1.2070 ca         1 VBC      -0.138000
      6 C11          3.4690    -0.0050    -1.2070 ca         1 VBC      -0.128000
      7 C12          2.0910    -0.0050    -1.2040 ca         1 VBC      -0.146000
      8 C2           3.4690     0.0000     1.2070 ca         1 VBC      -0.128000
      9 C3           4.1670     0.0010     0.0010 cp         1 VBC      -0.005000
     10 C4           5.6500    -0.0000     0.0010 cp         1 VBC      -0.086000
     11 C5           6.3470     0.0060     1.2050 ca         1 VBC      -0.087000
     12 C6           7.7410     0.0050     1.1970 ca         1 VBC      -0.106600
     13 C7           8.4890     0.0100     2.4710 c          1 VBC       0.883200
     14 C8           8.4280    -0.0020    -0.0190 ca         1 VBC      -0.085000
     15 C9           7.7300    -0.0080    -1.2090 ca         1 VBC      -0.167000
     16 O1           9.8360     0.0080     2.4610 o          1 VBC      -0.836800
     17 H1          -0.5000    -0.8670     0.0020 hn         1 VBC       0.416800
     18 H           -0.5000     0.8670    -0.0020 hn         1 VBC       0.416800
     19 H2           1.5470    -0.0010     2.1420 ha         1 VBC       0.123000
     20 H7           5.8060    -0.0120    -2.1440 ha         1 VBC       0.105000
     21 H8           4.0100    -0.0070    -2.1450 ha         1 VBC       0.140000
     22 H9           1.5480    -0.0100    -2.1420 ha         1 VBC       0.123000
     23 H3           4.0090     0.0020     2.1460 ha         1 VBC       0.140000
     24 H4           5.8080     0.0110     2.1450 ha         1 VBC       0.148000
     25 H5           9.5120    -0.0030    -0.0280 ha         1 VBC       0.154000
     26 H6           8.2680    -0.0140    -2.1500 ha         1 VBC       0.106000
@<TRIPOS>BOND
     1     1     2 1
     2     2     7 ar
     3     2     4 ar
     4     7     6 ar
     5     3    13 1
     6     4     8 ar
     7     6     9 ar
     8     8     9 ar
     9    13    16 1
    10    13    12 1
    11    11    12 ar
    12    11    10 ar
    13     9    10 1
    14    12    14 ar
    15    10     5 ar
    16    14    15 ar
    17     5    15 ar
    18     1    17 1
    19     1    18 1
    20     4    19 1
    21     5    20 1
    22     6    21 1
    23     7    22 1
    24     8    23 1
    25    11    24 1
    26    14    25 1
    27    15    26 1
@<TRIPOS>SUBSTRUCTURE
     1 VBC         1 TEMP              0 ****  ****    0 ROOT
