@<TRIPOS>MOLECULE
VBC
   26    27     1     0     0
SMALL
bcc


@<TRIPOS>ATOM
      1 N            0.0000     0.0000     0.0000 nv         1 VBC      -0.559200
      2 C            1.3960     0.0000     0.0000 ca         1 VBC      -0.006400
      3 O            7.8890     0.0160     3.5270 o          1 VBC      -0.884800
      4 C1           2.0900     0.0000     1.2040 ca         1 VBC      -0.114000
      5 C10          6.3490    -0.0070    -1.2070 ca         1 VBC      -0.123000
      6 C11          3.4690    -0.0050    -1.2070 ca         1 VBC      -0.112000
      7 C12          2.0910    -0.0050    -1.2040 ca         1 VBC      -0.114000
      8 C2           3.4690     0.0000     1.2070 ca         1 VBC      -0.112000
      9 C3           4.1670     0.0010     0.0010 cp         1 VBC       0.012000
     10 C4           5.6500    -0.0000     0.0010 cp         1 VBC      -0.091000
     11 C5           6.3470     0.0060     1.2050 ca         1 VBC      -0.065000
     12 C6           7.7410     0.0050     1.1970 ca         1 VBC      -0.106600
     13 C7           8.4890     0.0100     2.4710 c          1 VBC       0.975200
     14 C8           8.4280    -0.0020    -0.0190 ca         1 VBC      -0.056000
     15 C9           7.7300    -0.0080    -1.2090 ca         1 VBC      -0.146000
     16 O1           9.8360     0.0080     2.4610 o          1 VBC      -0.884800
     17 H1          -0.5000    -0.8670     0.0020 hn         1 VBC       0.261800
     18 H           -0.5000     0.8670    -0.0020 hn         1 VBC       0.261800
     19 H2           1.5470    -0.0010     2.1420 ha         1 VBC       0.097000
     20 H7           5.8060    -0.0120    -2.1440 ha         1 VBC       0.090000
     21 H8           4.0100    -0.0070    -2.1450 ha         1 VBC       0.119500
     22 H9           1.5480    -0.0100    -2.1420 ha         1 VBC       0.097000
     23 H3           4.0090     0.0020     2.1460 ha         1 VBC       0.119500
     24 H4           5.8080     0.0110     2.1450 ha         1 VBC       0.127000
     25 H5           9.5120    -0.0030    -0.0280 ha         1 VBC       0.128000
     26 H6           8.2680    -0.0140    -2.1500 ha         1 VBC       0.084000
@<TRIPOS>BOND
     1     1     2 1   
     2     1    17 1   
     3     1    18 1   
     4     2     4 ar  
     5     2     7 ar  
     6     3    13 1   
     7     4     8 ar  
     8     4    19 1   
     9     5    10 ar  
    10     5    15 ar  
    11     5    20 1   
    12     6     7 ar  
    13     6     9 ar  
    14     6    21 1   
    15     7    22 1   
    16     8     9 ar  
    17     8    23 1   
    18     9    10 1   
    19    10    11 ar  
    20    11    12 ar  
    21    11    24 1   
    22    12    13 1   
    23    12    14 ar  
    24    13    16 1   
    25    14    15 ar  
    26    14    25 1   
    27    15    26 1   
@<TRIPOS>SUBSTRUCTURE
     1 VBC         1 TEMP              0 ****  ****    0 ROOT
