@<TRIPOS>MOLECULE
VBM
   51    54     1     0     0
SMALL
bcc


@<TRIPOS>ATOM
      1 C15          0.0000     0.0000     0.0000 ca         1 VBM      -0.097000
      2 C12          1.3790     0.0000     0.0000 ca         1 VBM      -0.081000
      3 C13          2.0730     0.0000     1.2120 ca         1 VBM       0.069000
      4 C19          3.5060     0.0010     1.2200 cg         1 VBM       0.218800
      5 N20          4.6410     0.0150     1.2120 n1         1 VBM      -0.361800
      6 C14          1.3650    -0.0000     2.4150 ca         1 VBM      -0.081000
      7 C18         -0.0140     0.0000     2.4000 ca         1 VBM      -0.097000
      8 C11         -0.6960     0.0010     1.1970 ca         1 VBM      -0.096300
      9 C9          -2.2030     0.0010     1.1880 c3         1 VBM       0.318000
     10 C8          -2.7180     1.4040     1.4320 ce         1 VBM      -0.071900
     11 C10         -2.9620     1.8400     2.6840 c2         1 VBM       0.019800
     12 C17         -3.4570     3.2460     2.9040 c3         1 VBM       0.038100
     13 C16         -2.5300     2.4100     0.2990 cg         1 VBM       0.196500
     14 N35         -2.6630     3.0480    -0.6090 n1         1 VBM      -0.365800
     15 N3          -2.7060    -0.8480     2.2700 na         1 VBM      -0.245400
     16 N6          -3.0170    -2.2010     2.3100 na         1 VBM      -0.368000
     17 C5          -3.4180    -2.4580     3.6040 cc         1 VBM       0.705200
     18 N7          -3.7930    -3.6430     4.0830 nf         1 VBM      -0.666100
     19 C31         -3.8020    -4.7130     3.2840 c          1 VBM       0.825500
     20 O32         -3.4670    -4.6050     2.1190 o          1 VBM      -0.686000
     21 O33         -4.1820    -5.9140     3.7700 os         1 VBM      -0.359900
     22 C34         -4.1680    -7.0160     2.8600 c3         1 VBM       0.234700
     23 N2          -3.3650    -1.3120     4.2970 nc         1 VBM      -0.680000
     24 C1          -2.9530    -0.3420     3.5280 cd         1 VBM       0.511100
     25 N4          -2.7590     1.0010     3.7730 nh         1 VBM      -0.035800
     26 C21         -2.3850     1.4850     5.0320 ca         1 VBM      -0.016400
     27 C26         -3.2610     1.3840     6.1040 ca         1 VBM      -0.026000
     28 C22         -1.1350     2.0610     5.2110 ca         1 VBM      -0.080000
     29 C23         -0.7680     2.5390     6.4560 ca         1 VBM      -0.130000
     30 C24         -1.6450     2.4410     7.5200 ca         1 VBM      -0.053000
     31 C25         -2.8890     1.8620     7.3450 ca         1 VBM      -0.164300
     32 C27         -3.8390     1.7540     8.5100 c3         1 VBM       0.641200
     33 F29         -3.6270     0.5420     9.1740 f          1 VBM      -0.203300
     34 F30         -3.6160     2.8150     9.3950 f          1 VBM      -0.203300
     35 F28         -5.1570     1.8060     8.0430 f          1 VBM      -0.203300
     36 H15         -0.4890     0.0370    -0.9660 ha         1 VBM       0.119000
     37 H12          1.9550    -0.2820    -0.8730 ha         1 VBM       0.124000
     38 H14          1.5840    -0.1130     3.4700 ha         1 VBM       0.124000
     39 H18         -0.3690     0.1290     3.4160 ha         1 VBM       0.119000
     40 H9          -2.5700    -0.3630     0.2360 h1         1 VBM       0.057700
     41 H171        -2.7370     3.5610     3.6490 hc         1 VBM       0.034033
     42 H172        -4.2480     3.0770     3.6250 hc         1 VBM       0.034033
     43 H173        -3.6560     3.9890     2.1420 hc         1 VBM       0.034033
     44 H6          -3.8020    -2.7940     2.1270 hn         1 VBM       0.401800
     45 H341        -4.7270    -7.8890     3.1750 h1         1 VBM       0.004367
     46 H342        -3.2440    -6.9970     2.2960 h1         1 VBM       0.004367
     47 H343        -4.8930    -6.9270     2.0600 h1         1 VBM       0.004367
     48 H26         -4.1180     0.7270     6.0230 ha         1 VBM       0.150000
     49 H22         -0.2230     1.6950     4.7560 ha         1 VBM       0.127000
     50 H23          0.2090     2.8220     6.8280 ha         1 VBM       0.124000
     51 H24         -1.2270     3.1690     8.2050 ha         1 VBM       0.136000
@<TRIPOS>BOND
     1     1     2 ar  
     2     1     8 ar  
     3     1    36 1   
     4     2     3 ar  
     5     2    37 1   
     6     3     4 1   
     7     3     6 ar  
     8     4     5 3   
     9     6     7 ar  
    10     6    38 1   
    11     7     8 ar  
    12     7    39 1   
    13     8     9 1   
    14     9    10 1   
    15     9    15 1   
    16     9    40 1   
    17    10    11 2   
    18    10    13 1   
    19    11    12 1   
    20    11    25 1   
    21    12    41 1   
    22    12    42 1   
    23    12    43 1   
    24    13    14 3   
    25    15    16 1   
    26    15    24 1   
    27    16    17 1   
    28    16    44 1   
    29    17    18 2   
    30    17    23 1   
    31    18    19 1   
    32    19    20 2   
    33    19    21 1   
    34    21    22 1   
    35    22    45 1   
    36    22    46 1   
    37    22    47 1   
    38    23    24 2   
    39    24    25 1   
    40    25    26 1   
    41    26    27 ar  
    42    26    28 ar  
    43    27    31 ar  
    44    27    48 1   
    45    28    29 ar  
    46    28    49 1   
    47    29    30 ar  
    48    29    50 1   
    49    30    31 ar  
    50    30    51 1   
    51    31    32 1   
    52    32    33 1   
    53    32    34 1   
    54    32    35 1   
@<TRIPOS>SUBSTRUCTURE
     1 VBM         1 TEMP              0 ****  ****    0 ROOT
