@<TRIPOS>MOLECULE
molecule
   51    54     1     0     0
SMALL
bcc


@<TRIPOS>ATOM
      1 C15          0.0000     0.0000     0.0000 ca         1 VBM      -0.100000
      2 C12          1.3790     0.0000     0.0000 ca         1 VBM      -0.112500
      3 C13          2.0730     0.0000     1.2120 ca         1 VBM      -0.053000
      4 C19          3.5060     0.0010     1.2200 cg         1 VBM       0.222800
      5 N20          4.6410     0.0210     1.2230 n1         1 VBM      -0.341800
      6 C14          1.3650    -0.0000     2.4150 ca         1 VBM      -0.112500
      7 C18         -0.0140     0.0000     2.4000 ca         1 VBM      -0.100000
      8 C11         -0.6960     0.0010     1.1970 ca         1 VBM      -0.074300
      9 C9          -2.2030     0.0010     1.1880 c3         1 VBM       0.369000
     10 C8          -2.7180     1.4040     1.4320 ce         1 VBM      -0.060900
     11 C10         -2.9620     1.8400     2.6840 c2         1 VBM       0.228800
     12 C17         -3.4570     3.2460     2.9040 c3         1 VBM      -0.113900
     13 C16         -2.5420     2.3840     0.0390 cg         1 VBM       0.188500
     14 N35         -2.4170     3.1830    -0.8240 n1         1 VBM      -0.355800
     15 N3          -2.7060    -0.8480     2.2700 na         1 VBM      -0.540400
     16 N6          -3.0170    -2.2010     2.3100 na         1 VBM      -0.600000
     17 C5          -3.4180    -2.4580     3.6040 cc         1 VBM       0.955200
     18 N7          -3.7930    -3.6430     4.0830 nf         1 VBM      -0.753100
     19 C31         -3.8020    -4.7130     3.2840 c          1 VBM       0.808500
     20 O32         -3.4670    -4.6050     2.1190 o          1 VBM      -0.701000
     21 O33         -4.1820    -5.9140     3.7700 os         1 VBM      -0.417900
     22 C34         -4.1680    -7.0160     2.8600 c3         1 VBM       0.123700
     23 N2          -3.3650    -1.3120     4.2970 nc         1 VBM      -0.732000
     24 C1          -2.9530    -0.3420     3.5280 cd         1 VBM       0.832100
     25 N4          -2.7590     1.0010     3.7730 nh         1 VBM      -0.495800
     26 C21         -2.3850     1.4850     5.0320 ca         1 VBM       0.127600
     27 C26         -3.2610     1.3840     6.1040 ca         1 VBM      -0.061000
     28 C22         -1.1350     2.0610     5.2110 ca         1 VBM      -0.133000
     29 C23         -0.7680     2.5390     6.4560 ca         1 VBM      -0.165000
     30 C24         -1.6450     2.4410     7.5200 ca         1 VBM      -0.062000
     31 C25         -2.8890     1.8620     7.3450 ca         1 VBM      -0.138300
     32 C27         -3.8390     1.7540     8.5100 c3         1 VBM       0.678200
     33 F29         -3.6270     0.5420     9.1740 f          1 VBM      -0.216633
     34 F30         -3.6160     2.8150     9.3950 f          1 VBM      -0.216633
     35 F28         -5.1570     1.8060     8.0430 f          1 VBM      -0.216633
     36 H15         -0.4940     0.1520    -0.9520 ha         1 VBM       0.155000
     37 H12          2.0030     0.2360    -0.8540 ha         1 VBM       0.163500
     38 H14          2.3110     0.0750     2.9380 ha         1 VBM       0.163500
     39 H18         -0.1920     0.1520     3.4580 ha         1 VBM       0.155000
     40 H9          -2.5700    -0.3630     0.2360 h1         1 VBM       0.096700
     41 H171        -2.8560     4.0620     3.2860 hc         1 VBM       0.067700
     42 H172        -4.2730     3.5730     3.5370 hc         1 VBM       0.067700
     43 H173        -3.7980     3.7500     2.0080 hc         1 VBM       0.067700
     44 H6          -2.9130    -2.8290     1.5380 hn         1 VBM       0.536800
     45 H341        -3.5980    -7.7680     3.3920 h1         1 VBM       0.067033
     46 H342        -3.5500    -6.7200     2.0210 h1         1 VBM       0.067033
     47 H343        -5.2500    -6.9750     2.8210 h1         1 VBM       0.067033
     48 H26         -4.0920     0.6890     6.1110 ha         1 VBM       0.185000
     49 H22         -0.5400     2.3010     4.3380 ha         1 VBM       0.140000
     50 H23          0.1280     3.0420     6.1150 ha         1 VBM       0.163000
     51 H24         -0.9590     2.9260     8.2040 ha         1 VBM       0.178000
@<TRIPOS>BOND
     1     1     2 ar
     2     1     8 ar
     3     2     3 ar
     4     3     4 1
     5     3     6 ar
     6     4     5 3
     7     6     7 ar
     8     7     8 ar
     9     8     9 1
    10     9    10 1
    11     9    15 1
    12    10    11 2
    13    10    13 1
    14    11    12 1
    15    11    25 1
    16    13    14 3
    17    15    16 1
    18    15    24 1
    19    16    17 1
    20    17    18 2
    21    17    23 1
    22    18    19 1
    23    19    20 2
    24    19    21 1
    25    21    22 1
    26    23    24 2
    27    24    25 1
    28    25    26 1
    29    26    27 ar
    30    26    28 ar
    31    27    31 ar
    32    28    29 ar
    33    29    30 ar
    34    30    31 ar
    35    31    32 1
    36    32    33 1
    37    32    34 1
    38    32    35 1
    39     1    36 1
    40     2    37 1
    41     6    38 1
    42     7    39 1
    43     9    40 1
    44    12    41 1
    45    12    42 1
    46    12    43 1
    47    16    44 1
    48    22    45 1
    49    22    46 1
    50    22    47 1
    51    27    48 1
    52    28    49 1
    53    29    50 1
    54    30    51 1
@<TRIPOS>SUBSTRUCTURE
     1 VBM         1 TEMP              0 ****  ****    0 ROOT
