@<TRIPOS>MOLECULE
VBP
   38    36     1     0     0
SMALL
bcc


@<TRIPOS>ATOM
      1 C10        -0.8790    1.0340    1.4390 c3        1 VBP      0.107000
      2 C11        -0.0660   -0.1920    0.9950 c3        1 VBP      0.002700
      3 C12         1.2410    0.1330    0.5190 c1        1 VBP     -0.219100
      4 C13         2.2970    0.4420    0.0450 c1        1 VBP     -0.042100
      5 C14         3.4920    0.8680   -0.6340 c3        1 VBP     -0.061500
      6 C15         4.5040    1.3660    0.2570 c1        1 VBP     -0.057100
      7 C16         5.3650    1.7750    0.9790 c1        1 VBP     -0.223500
      8 C17         3.0690    1.9290   -1.7190 c         1 VBP      0.933600
      9 C20        -0.8980    1.9490   -0.8400 c         1 VBP      0.797100
     10 C22        -1.9330    3.3950   -4.0830 c         1 VBP      0.538800
     11 N01        -3.6880    3.0450   -2.4480 n2        1 VBP     -0.720100
     12 C02        -2.8370    2.5420   -3.2570 ce        1 VBP      0.389200
     13 N04        -0.0860    2.6290   -1.7320 n         1 VBP     -0.559900
     14 C05        -0.3170    5.5650   -0.4100 c1        1 VBP     -0.029500
     15 C06        -0.4420    4.5880    0.2680 cg        1 VBP     -0.182200
     16 C07        -0.5590    3.4530    1.1360 c         1 VBP      0.724300
     17 O08        -0.5100    3.5800    2.3760 o         1 VBP     -0.591100
     18 N09        -0.7910    2.1930    0.5710 n         1 VBP     -0.498400
     19 O18         2.7550    3.0940   -1.3570 o         1 VBP     -0.821800
     20 O19         3.0130    1.5140   -2.9080 o         1 VBP     -0.821800
     21 H10        -1.9630    0.7250    1.4940 h1        1 VBP      0.061700
     22 H10A       -0.5370    1.3410    2.4690 h1        1 VBP      0.061700
     23 H12        -0.6290   -0.7210    0.1730 hc        1 VBP      0.057700
     24 H13         3.9190   -0.0140   -1.2040 hc        1 VBP      0.084700
     25 H15         6.1220    2.1550    1.6110 ha        1 VBP      0.146500
     26 H16        -0.0060   -0.8900    1.8750 hc        1 VBP      0.057700
     27 HN01       -4.2170    2.3690   -1.9320 hn        1 VBP      0.395400
     28 HN0A       -3.8280    0.0020   -1.4690 ha        1 VBP      0.001500
     29 H02        -0.5080    1.2580   -3.2950 h2        1 VBP      0.116700
     30 H05         0.7060    3.1560   -1.3890 hn        1 VBP      0.383500
     31 H06        -3.9410    0.0280   -2.1370 ha        1 VBP      0.001500
     32 H03         1.0850    2.2550   -3.4390 h2        1 VBP      0.116700
     33 H03A       -2.6640    1.4530   -3.4180 h4        1 VBP      0.002800
     34 O21        -1.7610    1.1180   -1.2280 o         1 VBP     -0.674100
     35 O24        -0.5840    3.2380   -3.9990 os        1 VBP     -0.418900
     36 H013       -0.1980    6.4170   -1.0340 ha        1 VBP      0.173500
     37 C03        -0.0120    2.2510   -3.1140 c3        1 VBP      0.274800
     38 O23        -2.2850    4.2270   -4.9220 o         1 VBP     -0.507000
@<TRIPOS>BOND
     1    1    2 1
     2    1   18 1
     3    1   21 1
     4    1   22 1
     5    2    3 1
     6    2   23 1
     7    2   26 1
     8    3    4 3
     9    4    5 1
    10    5    6 1
    11    5    8 1
    12    5   24 1
    13    6    7 3
    14    7   25 1
    15    8   19 1
    16    8   20 1
    17    9   13 1
    18    9   18 1
    19    9   34 2
    20   10   12 1
    21   10   35 1
    22   10   38 2
    23   11   12 2
    24   11   27 1
    25   12   33 1
    26   13   30 1
    27   13   37 1
    28   14   15 3
    29   14   36 1
    30   15   16 1
    31   16   17 2
    32   16   18 1
    33   28   31 1
    34   29   37 1
    35   32   37 1
    36   35   37 1
@<TRIPOS>SUBSTRUCTURE
     1 VBP         1 TEMP              0 ****  ****    0 ROOT
