@<TRIPOS>MOLECULE
VBZ
   41    43     1     0     0
SMALL
bcc


@<TRIPOS>ATOM
      1 O2          0.0130   -0.5730    0.3620 oh        1 VBZ     -0.591800
      2 C2          1.3220   -0.1200    0.0940 c3        1 VBZ      0.124100
      3 C3          2.1190    0.1080    1.3980 c3        1 VBZ      0.087100
      4 O3          1.4210   -0.2160    2.5810 oh        1 VBZ     -0.593800
      5 C4          3.4340   -0.7200    1.3190 c3        1 VBZ      0.110800
      6 O4          4.1970   -0.6010    2.5020 oh        1 VBZ     -0.589800
      7 C5          4.2510   -0.1540    0.1420 c3        1 VBZ     -0.090700
      8 C6          5.6820   -0.6760    0.0630 c3        1 VBZ      0.134400
      9 O6          5.8120   -1.9150   -0.6050 oh        1 VBZ     -0.605800
     10 C7          3.4600   -0.3780   -1.1440 c3        1 VBZ     -0.107400
     11 C8          3.0450   -2.2010    1.0870 c3        1 VBZ      0.132800
     12 N1          2.2910   -2.3750   -0.1510 n3        1 VBZ     -0.729600
     13 C1          2.1270   -1.0790   -0.8280 c3        1 VBZ      0.138500
     14 C9          2.8100   -3.4100   -1.0380 c3        1 VBZ      0.204100
     15 C10         2.9290   -4.7550   -0.3840 ca        1 VBZ     -0.092300
     16 C11         1.7820   -5.4570    0.0020 ca        1 VBZ     -0.118500
     17 C12         1.8970   -6.7230    0.5740 ca        1 VBZ     -0.131000
     18 C15         4.1900   -5.3300   -0.1910 ca        1 VBZ     -0.118500
     19 C14         4.3010   -6.5980    0.3770 ca        1 VBZ     -0.131000
     20 C13         3.1550   -7.2950    0.7610 ca        1 VBZ     -0.125000
     21 H2          0.0270   -1.5360    0.4410 ho        1 VBZ      0.418000
     22 HA          1.1750    0.8630   -0.4350 h1        1 VBZ      0.083700
     23 H3          2.3760    1.1980    1.5160 h1        1 VBZ      0.083700
     24 H1          1.5440   -1.2470   -1.7750 h1        1 VBZ      0.077700
     25 HB          0.7810   -0.9110    2.3810 ho        1 VBZ      0.414000
     26 H4          3.5710   -0.6480    3.2400 ho        1 VBZ      0.425000
     27 H5          4.3480    0.9550    0.3270 hc        1 VBZ      0.064700
     28 H8C1        2.3730   -2.5270    1.9320 h1        1 VBZ      0.053200
     29 H8C2        3.9650   -2.8440    1.1310 h1        1 VBZ      0.053200
     30 H6C1        6.2960    0.0310   -0.5630 h1        1 VBZ      0.059700
     31 H6C2        6.1160   -0.7360    1.0970 h1        1 VBZ      0.059700
     32 H7C1        4.0570   -0.9980   -1.8630 hc        1 VBZ      0.063700
     33 H7C2        3.2470    0.6020   -1.6420 hc        1 VBZ      0.063700
     34 H6          5.5040   -2.6040   -0.0050 ho        1 VBZ      0.399000
     35 H9C1        3.8170   -3.1230   -1.4690 h1        1 VBZ      0.051700
     36 H9C2        2.0840   -3.4970   -1.8980 h1        1 VBZ      0.051700
     37 H11         0.7910   -5.0030   -0.1460 ha        1 VBZ      0.135500
     38 H15         5.0960   -4.7830   -0.4960 ha        1 VBZ      0.135500
     39 H12         0.9930   -7.2720    0.8760 ha        1 VBZ      0.133500
     40 H13         3.2440   -8.2950    1.2100 ha        1 VBZ      0.133000
     41 H14         5.2940   -7.0480    0.5230 ha        1 VBZ      0.133500
@<TRIPOS>BOND
     1    1    2 1   
     2    1   21 1   
     3    2    3 1   
     4    2   13 1   
     5    2   22 1   
     6    3    4 1   
     7    3    5 1   
     8    3   23 1   
     9    4   25 1   
    10    5    6 1   
    11    5    7 1   
    12    5   11 1   
    13    6   26 1   
    14    7    8 1   
    15    7   10 1   
    16    7   27 1   
    17    8    9 1   
    18    8   30 1   
    19    8   31 1   
    20    9   34 1   
    21   10   13 1   
    22   10   32 1   
    23   10   33 1   
    24   11   12 1   
    25   11   28 1   
    26   11   29 1   
    27   12   13 1   
    28   12   14 1   
    29   13   24 1   
    30   14   15 1   
    31   14   35 1   
    32   14   36 1   
    33   15   16 ar  
    34   15   18 ar  
    35   16   17 ar  
    36   16   37 1   
    37   17   20 ar  
    38   17   39 1   
    39   18   19 ar  
    40   18   38 1   
    41   19   20 ar  
    42   19   41 1   
    43   20   40 1   
@<TRIPOS>SUBSTRUCTURE
     1 VBZ         1 TEMP              0 ****  ****    0 ROOT
