@<TRIPOS>MOLECULE
molecule
   49    51     1     0     0
SMALL
bcc


@<TRIPOS>ATOM
      1 O01          0.0000     0.0000     0.0000 oh         1 VC1      -0.503100
      2 C02          1.3560     0.0000     0.0000 ca         1 VC1       0.175100
      3 C03          2.0520     0.0000     1.1970 ca         1 VC1      -0.219000
      4 C04          3.4380     0.0010     1.1960 ca         1 VC1       0.160100
      5 O05          4.1150     0.0010     2.3710 oh         1 VC1      -0.507100
      6 C06          4.1390    -0.0010    -0.0090 ca         1 VC1      -0.021600
      7 Cl7          5.8750    -0.0020     0.0010 cl         1 VC1      -0.082400
      8 C08          3.4600    -0.0020    -1.2050 ca         1 VC1      -0.004300
      9 C09          4.2230    -0.0030    -2.5050 c3         1 VC1      -0.045100
     10 C10          4.4810    -1.4470    -2.9440 c3         1 VC1      -0.035100
     11 C11          5.2430    -1.4480    -4.2430 ca         1 VC1      -0.084300
     12 C12          6.6230    -1.3630    -4.2350 ca         1 VC1      -0.077300
     13 C13          7.3640    -1.2700    -2.9270 c3         1 VC1       0.009200
     14 C14          8.8440    -1.1560    -3.1930 ca         1 VC1      -0.098300
     15 C15          9.6190    -2.2980    -3.2800 ca         1 VC1      -0.099500
     16 C16         10.9750    -2.1940    -3.5240 ca         1 VC1      -0.166500
     17 C17         11.5570    -0.9480    -3.6850 ca         1 VC1       0.129900
     18 F18         12.8820    -0.8460    -3.9250 f          1 VC1      -0.141900
     19 C19         10.7790     0.1940    -3.5990 ca         1 VC1      -0.166500
     20 C20          9.4210     0.0880    -3.3590 ca         1 VC1      -0.099500
     21 C21          7.3230    -1.3650    -5.4270 ca         1 VC1      -0.122000
     22 C22          6.6430    -1.4500    -6.6280 ca         1 VC1      -0.126000
     23 C23          5.2630    -1.5350    -6.6360 ca         1 VC1      -0.129000
     24 C24          4.5640    -1.5390    -5.4430 ca         1 VC1      -0.121000
     25 C25          2.0610    -0.0070    -1.2140 ca         1 VC1      -0.134600
     26 C26          1.3300    -0.0150    -2.4920 c          1 VC1       0.664700
     27 O27          0.9960    -1.1840    -3.0700 os         1 VC1      -0.418900
     28 C28          0.2760    -1.1160    -4.3290 c3         1 VC1       0.136700
     29 O29          1.0280     1.0350    -3.0250 o          1 VC1      -0.534000
     30 H1          -0.3140     0.7450     0.4840 ho         1 VC1       0.434000
     31 H2           1.5120    -0.0010     2.1360 ha         1 VC1       0.157000
     32 H3           4.1580    -0.8780     2.7100 ho         1 VC1       0.431000
     33 H4           3.6420     0.5060    -3.2640 hc         1 VC1       0.070700
     34 H5           5.1680     0.5080    -2.3700 hc         1 VC1       0.070700
     35 H6           5.0610    -1.9570    -2.1840 hc         1 VC1       0.059200
     36 H7           3.5350    -1.9570    -3.0800 hc         1 VC1       0.059200
     37 H8           7.0270    -0.3960    -2.3820 hc         1 VC1       0.062700
     38 H9           7.1710    -2.1590    -2.3380 hc         1 VC1       0.062700
     39 H10          9.1640    -3.2730    -3.1540 ha         1 VC1       0.140500
     40 H11         11.5830    -3.0890    -3.5920 ha         1 VC1       0.145500
     41 H12         11.2320     1.1690    -3.7270 ha         1 VC1       0.145500
     42 H13          8.8120     0.9810    -3.2920 ha         1 VC1       0.140500
     43 H14          8.4040    -1.2980    -5.4200 ha         1 VC1       0.143000
     44 H15          7.1910    -1.4490    -7.5620 ha         1 VC1       0.131000
     45 H16          4.7300    -1.6040    -7.5770 ha         1 VC1       0.129000
     46 H17          3.4830    -1.6050    -5.4500 ha         1 VC1       0.129000
     47 H18          0.2300    -2.1030    -4.7730 h1         1 VC1       0.051033
     48 H19         -0.7280    -0.7520    -4.1510 h1         1 VC1       0.051033
     49 H20          0.7900    -0.4410    -5.0030 h1         1 VC1       0.051033
@<TRIPOS>BOND
     1     5     4 1
     2     4     3 ar
     3     4     6 ar
     4     7     6 1
     5     3     2 ar
     6     6     8 ar
     7     2     1 1
     8     2    25 ar
     9    13    14 1
    10    13    12 1
    11    15    14 ar
    12    15    16 ar
    13    14    20 ar
    14     8    25 ar
    15     8     9 1
    16    16    17 ar
    17    20    19 ar
    18    17    19 ar
    19    17    18 1
    20    10     9 1
    21    10    11 1
    22    25    26 1
    23    12    11 ar
    24    12    21 ar
    25    11    24 ar
    26    26    27 1
    27    26    29 2
    28    21    22 ar
    29    27    28 1
    30    24    23 ar
    31    22    23 ar
    32     1    30 1
    33     3    31 1
    34     5    32 1
    35     9    33 1
    36     9    34 1
    37    10    35 1
    38    10    36 1
    39    13    37 1
    40    13    38 1
    41    15    39 1
    42    16    40 1
    43    19    41 1
    44    20    42 1
    45    21    43 1
    46    22    44 1
    47    23    45 1
    48    24    46 1
    49    28    47 1
    50    28    48 1
    51    28    49 1
@<TRIPOS>SUBSTRUCTURE
     1 VC1         1 TEMP              0 ****  ****    0 ROOT
