@<TRIPOS>MOLECULE
VC2
   29    30     1     0     0
SMALL
bcc


@<TRIPOS>ATOM
      1 O            0.0000     0.0000     0.0000 o          1 VC2      -0.869800
      2 C            1.2080     0.0000     0.0000 c          1 VC2       0.976600
      3 OXT          1.8790     0.0040    -1.1630 o          1 VC2      -0.869800
      4 CA           1.9620     0.0000     1.3040 c3         1 VC2      -0.003500
      5 N            1.0610    -0.4390     2.3680 n3         1 VC2      -0.471600
      6 CB           2.5370     1.4130     1.5470 c3         1 VC2       0.103100
      7 CG2          2.6830     2.1810     0.2310 c3         1 VC2      -0.005100
      8 CG1          3.8720     1.3440     2.2900 c3         1 VC2      -0.005100
      9 SAI          1.2260     2.1580     2.6050 ss         1 VC2      -0.437200
     10 CAO          0.7860     0.5660     3.4120 c3         1 VC2       0.275600
     11 CAG          1.7540     0.3400     4.6040 c3         1 VC2       0.070700
     12 SAH          1.6900    -1.5000     4.7030 ss         1 VC2      -0.472200
     13 CAK          1.4950    -1.7500     2.8960 c3         1 VC2       0.285600
     14 CAF          0.4310    -2.8120     2.6190 c3         1 VC2       0.134700
     15 SAE         -1.1240    -2.3350     3.4230 sh         1 VC2      -0.392900
     16 H2           2.7850    -0.7010     1.2360 h1         1 VC2       0.036700
     17 H4           3.3160     1.6200    -0.4460 hc         1 VC2       0.020200
     18 H5           1.7060     2.3170    -0.2180 hc         1 VC2       0.020200
     19 H6           3.1300     3.1480     0.4240 hc         1 VC2       0.020200
     20 H7           3.9530     0.3910     2.7990 hc         1 VC2       0.020200
     21 H8           4.6850     1.4450     1.5810 hc         1 VC2       0.020200
     22 H9           3.9240     2.1470     3.0150 hc         1 VC2       0.020200
     23 H10         -0.2510     0.5480     3.7250 h2         1 VC2       0.097700
     24 H11          2.7530     0.6850     4.3680 h1         1 VC2       0.060200
     25 H12          1.3730     0.7940     5.5100 h1         1 VC2       0.060200
     26 H13          2.4420    -2.0350     2.4540 h2         1 VC2       0.062700
     27 H14          0.7620    -3.7660     3.0100 h1         1 VC2       0.041700
     28 H15         -2.0100    -3.3150     3.2900 hs         1 VC2       0.160800
     29 H3           0.2740    -2.8950     1.5500 h1         1 VC2       0.041700
@<TRIPOS>BOND
     1     1     2 1   
     2     2     3 1   
     3     2     4 1   
     4     4     5 1   
     5     4     6 1   
     6     4    16 1   
     7     5    10 1   
     8     5    13 1   
     9     6     7 1   
    10     6     8 1   
    11     6     9 1   
    12     7    17 1   
    13     7    18 1   
    14     7    19 1   
    15     8    20 1   
    16     8    21 1   
    17     8    22 1   
    18     9    10 1   
    19    10    11 1   
    20    10    23 1   
    21    11    12 1   
    22    11    24 1   
    23    11    25 1   
    24    12    13 1   
    25    13    14 1   
    26    13    26 1   
    27    14    15 1   
    28    14    27 1   
    29    14    29 1   
    30    15    28 1   
@<TRIPOS>SUBSTRUCTURE
     1 VC2         1 TEMP              0 ****  ****    0 ROOT
