@<TRIPOS>MOLECULE
molecule
   21    22     1     0     0
SMALL
bcc


@<TRIPOS>ATOM
      1 N1           0.0000     0.0000     0.0000 no         1 VC3       0.296200
      2 N2           6.4990    -0.3840    -0.8880 nc         1 VC3      -0.494800
      3 C3           5.7080     0.0210     0.0790 cd         1 VC3       0.375800
      4 N4           7.8180    -0.2570    -0.4420 na         1 VC3      -0.035600
      5 C5           1.4730     0.0000     0.0000 ca         1 VC3      -0.160200
      6 C6           6.5100     0.4000     1.1730 cd         1 VC3      -0.332300
      7 O7          -0.6170    -0.1940     1.0340 o          1 VC3      -0.208500
      8 O8          -0.6030     0.2110    -1.0270 o          1 VC3      -0.208500
      9 C9           4.2290     0.0320     0.0360 ca         1 VC3      -0.064500
     10 C10          7.8000     0.2140     0.8210 cc         1 VC3      -0.109300
     11 C11          2.1430     0.0000     1.2160 ca         1 VC3      -0.070500
     12 C12          2.1660     0.0160    -1.2020 ca         1 VC3      -0.070500
     13 C13          3.5210     0.0120     1.2400 ca         1 VC3      -0.118000
     14 C14          3.5470     0.0240    -1.1850 ca         1 VC3      -0.118000
     15 H4           8.6380    -0.4890    -0.9670 hn         1 VC3       0.333700
     16 H6           6.1560     0.7740     2.1250 ha         1 VC3       0.159000
     17 H10          8.6660     0.4150     1.4400 h4         1 VC3       0.175000
     18 H11          1.5840    -0.0150     2.1440 ha         1 VC3       0.168000
     19 H12          1.6300     0.0090    -2.1430 ha         1 VC3       0.168000
     20 H13          4.0510     0.0130     2.1850 ha         1 VC3       0.158000
     21 H14          4.1010     0.0360    -2.1160 ha         1 VC3       0.158000
@<TRIPOS>BOND
     1     1     5 1
     2     1     7 1
     3     1     8 1
     4     2     3 2
     5     2     4 1
     6     3     6 1
     7     3     9 1
     8     4    10 1
     9     5    11 ar
    10     5    12 ar
    11     6    10 2
    12     9    13 ar
    13     9    14 ar
    14    11    13 ar
    15    12    14 ar
    16     4    15 1
    17     6    16 1
    18    10    17 1
    19    11    18 1
    20    12    19 1
    21    13    20 1
    22    14    21 1
@<TRIPOS>SUBSTRUCTURE
     1 VC3         1 TEMP              0 ****  ****    0 ROOT
