@<TRIPOS>MOLECULE
molecule
   48    50     1     0     0
SMALL
bcc


@<TRIPOS>ATOM
      1 O01          0.0000     0.0000     0.0000 oh         1 VC4      -0.489100
      2 C02          1.3560     0.0000     0.0000 ca         1 VC4       0.192100
      3 C03          2.0510     0.0000     1.1960 ca         1 VC4      -0.261000
      4 C04          3.4380    -0.0010     1.1950 ca         1 VC4       0.176100
      5 O05          4.1150    -0.0000     2.3710 oh         1 VC4      -0.499100
      6 C06          4.1390    -0.0030    -0.0090 ca         1 VC4      -0.029600
      7 Cl7          5.8750     0.0040    -0.0000 cl         1 VC4      -0.076400
      8 C08          3.4590    -0.0030    -1.2060 ca         1 VC4       0.007700
      9 C09          4.2220    -0.0060    -2.5050 c3         1 VC4      -0.045100
     10 C10          4.4790    -1.4480    -2.9440 c3         1 VC4      -0.038100
     11 C11          5.2410    -1.4510    -4.2440 ca         1 VC4      -0.200600
     12 C12          6.6230    -1.3880    -4.2460 ca         1 VC4       0.439600
     13 C13          7.3660    -1.3190    -2.9360 c3         1 VC4      -0.090400
     14 C14          7.8050    -2.7030    -2.5340 ca         1 VC4      -0.081300
     15 C15          7.0320    -3.4460    -1.6610 ca         1 VC4      -0.117500
     16 C16          7.4340    -4.7160    -1.2910 ca         1 VC4      -0.129000
     17 C17          8.6090    -5.2430    -1.7950 ca         1 VC4      -0.129000
     18 C18          9.3820    -4.5000    -2.6680 ca         1 VC4      -0.129000
     19 C19          8.9770    -3.2320    -3.0410 ca         1 VC4      -0.117500
     20 N20          7.2960    -1.3900    -5.3790 nb         1 VC4      -0.690000
     21 C21          6.6880    -1.4500    -6.5470 ca         1 VC4       0.420200
     22 C22          5.3100    -1.5140    -6.6240 ca         1 VC4      -0.259300
     23 C23          4.5660    -1.5200    -5.4530 ca         1 VC4      -0.086000
     24 C24          2.0600    -0.0080    -1.2150 ca         1 VC4      -0.145600
     25 C25          1.3290    -0.0090    -2.4920 c          1 VC4       0.663700
     26 O26          0.9910     1.1570    -3.0760 os         1 VC4      -0.422900
     27 C27          0.2710     1.0800    -4.3350 c3         1 VC4       0.138700
     28 O28          1.0320    -1.0630    -3.0200 o          1 VC4      -0.530000
     29 H1          -0.3140     0.5260     0.7170 ho         1 VC4       0.431000
     30 H2           1.5110    -0.0070     2.1350 ha         1 VC4       0.152000
     31 H3           3.9250     0.7930     2.8430 ho         1 VC4       0.429000
     32 H4           3.6430     0.5050    -3.2650 hc         1 VC4       0.067200
     33 H5           5.1680     0.5040    -2.3690 hc         1 VC4       0.067200
     34 H6           5.0590    -1.9590    -2.1850 hc         1 VC4       0.069200
     35 H7           3.5330    -1.9580    -3.0790 hc         1 VC4       0.069200
     36 H8           6.7150    -0.9100    -2.1730 hc         1 VC4       0.067700
     37 H9           8.2350    -0.6820    -3.0480 hc         1 VC4       0.067700
     38 H10          6.1110    -3.0330    -1.2660 ha         1 VC4       0.136500
     39 H11          6.8290    -5.2980    -0.6070 ha         1 VC4       0.129000
     40 H12          8.9260    -6.2370    -1.5040 ha         1 VC4       0.127000
     41 H13         10.3020    -4.9130    -3.0640 ha         1 VC4       0.129000
     42 H14          9.5820    -2.6490    -3.7250 ha         1 VC4       0.136500
     43 H15          7.2750    -1.4470    -7.4570 h4         1 VC4       0.021100
     44 H16          4.8170    -1.5650    -7.5880 ha         1 VC4       0.137000
     45 H17          3.4850    -1.5690    -5.4830 ha         1 VC4       0.143000
     46 H18          0.8680     0.5400    -5.0600 h1         1 VC4       0.050033
     47 H19         -0.6680     0.5620    -4.1830 h1         1 VC4       0.050033
     48 H20          0.0760     2.0810    -4.7010 h1         1 VC4       0.050033
@<TRIPOS>BOND
     1    21    22 ar
     2    21    20 ar
     3    22    23 ar
     4    20    12 ar
     5    23    11 ar
     6    12    11 ar
     7    12    13 1
     8    11    10 1
     9    13    14 1
    10    14    19 ar
    11    14    15 ar
    12    10     9 1
    13    19    18 ar
    14     7     6 1
    15     9     8 1
    16    15    16 ar
    17    18    17 ar
    18     6     8 ar
    19     6     4 ar
    20     8    24 ar
    21    16    17 ar
    22     5     4 1
    23    26    27 1
    24    26    25 1
    25     4     3 ar
    26    24    25 1
    27    24     2 ar
    28    25    28 2
    29     3     2 ar
    30     2     1 1
    31     1    29 1
    32     3    30 1
    33     5    31 1
    34     9    32 1
    35     9    33 1
    36    10    34 1
    37    10    35 1
    38    13    36 1
    39    13    37 1
    40    15    38 1
    41    16    39 1
    42    17    40 1
    43    18    41 1
    44    19    42 1
    45    21    43 1
    46    22    44 1
    47    23    45 1
    48    27    46 1
    49    27    47 1
    50    27    48 1
@<TRIPOS>SUBSTRUCTURE
     1 VC4         1 TEMP              0 ****  ****    0 ROOT
