@<TRIPOS>MOLECULE
molecule
   49    51     1     0     0
SMALL
bcc


@<TRIPOS>ATOM
      1 O01          0.0000     0.0000     0.0000 oh         1 VC5      -0.504100
      2 C02          1.3570     0.0000     0.0000 ca         1 VC5       0.174100
      3 C03          2.0510     0.0000     1.1970 ca         1 VC5      -0.219000
      4 C04          3.4390     0.0010     1.1950 ca         1 VC5       0.159100
      5 O05          4.1160     0.0010     2.3720 oh         1 VC5      -0.508100
      6 C06          4.1380    -0.0010    -0.0080 ca         1 VC5      -0.020600
      7 Cl7          5.8750    -0.0000     0.0020 cl         1 VC5      -0.081400
      8 C08          3.4600    -0.0020    -1.2060 ca         1 VC5      -0.003300
      9 C09          4.2220    -0.0030    -2.5050 c3         1 VC5      -0.046100
     10 C10          4.4810    -1.4460    -2.9440 c3         1 VC5      -0.035100
     11 C11          5.2440    -1.4470    -4.2440 ca         1 VC5      -0.085300
     12 C12          6.6230    -1.3640    -4.2340 ca         1 VC5      -0.075300
     13 C13          7.3640    -1.2710    -2.9260 c3         1 VC5       0.007200
     14 C14          8.8430    -1.1560    -3.1930 ca         1 VC5      -0.083300
     15 C15          9.4220     0.0890    -3.3550 ca         1 VC5      -0.124500
     16 C16         10.7780     0.1950    -3.6010 ca         1 VC5      -0.127500
     17 C17         11.5560    -0.9450    -3.6850 ca         1 VC5      -0.131000
     18 C18         10.9780    -2.1910    -3.5230 ca         1 VC5      -0.127500
     19 C19          9.6220    -2.2950    -3.2720 ca         1 VC5      -0.124500
     20 C20          7.3230    -1.3650    -5.4270 ca         1 VC5      -0.121000
     21 C21          6.6430    -1.4490    -6.6280 ca         1 VC5      -0.127000
     22 C22          5.2630    -1.5330    -6.6360 ca         1 VC5      -0.131000
     23 C23          4.5640    -1.5390    -5.4430 ca         1 VC5      -0.121000
     24 C24          2.0610    -0.0070    -1.2140 ca         1 VC5      -0.133600
     25 C25          1.3310    -0.0140    -2.4920 c          1 VC5       0.663700
     26 O26          0.9960    -1.1840    -3.0710 os         1 VC5      -0.417900
     27 C27          0.2770    -1.1140    -4.3300 c3         1 VC5       0.136700
     28 O28          1.0290     1.0370    -3.0260 o          1 VC5      -0.535000
     29 H1          -0.3140     0.7460     0.4830 ho         1 VC5       0.434000
     30 H2           1.5100    -0.0030     2.1360 ha         1 VC5       0.157000
     31 H3           4.1610    -0.8790     2.7080 ho         1 VC5       0.431000
     32 H4           3.6420     0.5070    -3.2650 hc         1 VC5       0.071200
     33 H5           5.1680     0.5080    -2.3690 hc         1 VC5       0.071200
     34 H6           3.5360    -1.9580    -3.0790 hc         1 VC5       0.058700
     35 H7           5.0620    -1.9560    -2.1840 hc         1 VC5       0.058700
     36 H8           7.0270    -0.3970    -2.3810 hc         1 VC5       0.061700
     37 H9           7.1710    -2.1590    -2.3380 hc         1 VC5       0.061700
     38 H10          8.8130     0.9820    -3.2890 ha         1 VC5       0.132500
     39 H11         11.2310     1.1700    -3.7280 ha         1 VC5       0.130000
     40 H12         12.6180    -0.8630    -3.8800 ha         1 VC5       0.129000
     41 H13         11.5870    -3.0840    -3.5860 ha         1 VC5       0.130000
     42 H14          9.1690    -3.2710    -3.1440 ha         1 VC5       0.132500
     43 H15          8.4040    -1.3000    -5.4210 ha         1 VC5       0.145000
     44 H16          7.1910    -1.4470    -7.5620 ha         1 VC5       0.130000
     45 H17          4.7300    -1.6010    -7.5760 ha         1 VC5       0.128000
     46 H18          3.4830    -1.6040    -5.4500 ha         1 VC5       0.129000
     47 H19         -0.7280    -0.7510    -4.1520 h1         1 VC5       0.051033
     48 H20          0.2300    -2.1010    -4.7740 h1         1 VC5       0.051033
     49 H21          0.7910    -0.4390    -5.0030 h1         1 VC5       0.051033
@<TRIPOS>BOND
     1     1     2 1
     2     2     3 ar
     3     2    24 ar
     4    28    25 2
     5     3     4 ar
     6    25    24 1
     7    25    26 1
     8    27    26 1
     9    24     8 ar
    10     4     5 1
    11     4     6 ar
    12    16    17 ar
    13    16    15 ar
    14    17    18 ar
    15     8     6 ar
    16     8     9 1
    17     6     7 1
    18    15    14 ar
    19    18    19 ar
    20     9    10 1
    21    19    14 ar
    22    14    13 1
    23    10    11 1
    24    13    12 1
    25    11    12 ar
    26    11    23 ar
    27    12    20 ar
    28    23    22 ar
    29    20    21 ar
    30    22    21 ar
    31     1    29 1
    32     3    30 1
    33     5    31 1
    34     9    32 1
    35     9    33 1
    36    10    34 1
    37    10    35 1
    38    13    36 1
    39    13    37 1
    40    15    38 1
    41    16    39 1
    42    17    40 1
    43    18    41 1
    44    19    42 1
    45    20    43 1
    46    21    44 1
    47    22    45 1
    48    23    46 1
    49    27    47 1
    50    27    48 1
    51    27    49 1
@<TRIPOS>SUBSTRUCTURE
     1 VC5         1 TEMP              0 ****  ****    0 ROOT
