@<TRIPOS>MOLECULE
VC6
   43    44     1     0     0
SMALL
bcc


@<TRIPOS>ATOM
      1 C4           0.0000     0.0000     0.0000 cc         1 VC6      -0.184500
      2 N4          -0.6920    -0.0010    -1.1890 nz         1 VC6       0.351400
      3 C5           1.4100     0.0000     0.0000 cc         1 VC6      -0.218600
      4 C6           2.0660     0.0000     1.1850 cd         1 VC6      -0.255400
      5 N3          -0.6570     0.0070     1.1530 nd         1 VC6      -0.878100
      6 C2           0.0040     0.0070     2.3100 c          1 VC6       0.763900
      7 O2          -0.6230     0.0120     3.3570 o          1 VC6      -0.831500
      8 N1           1.3490     0.0010     2.3430 n          1 VC6      -0.028000
      9 C1'          2.0460     0.0020     3.6320 c3         1 VC6       0.259500
     10 C2'          1.7100     1.2900     4.4250 c3         1 VC6      -0.128400
     11 C3'          1.9660     0.8150     5.8800 c3         1 VC6       0.152100
     12 O3'          3.3500     0.9220     6.2150 oh         1 VC6      -0.569800
     13 O4'          1.5740    -1.0780     4.4540 os         1 VC6      -0.356600
     14 C4'          1.5260    -0.6640     5.8240 c3         1 VC6       0.164100
     15 C5'          2.4810    -1.5200     6.6590 c3         1 VC6       0.299400
     16 O5'          2.0020    -2.8660     6.6980 os         1 VC6      -0.495200
     17 PA           2.7620    -4.0450     7.4890 p5         1 VC6       0.975800
     18 O1A          2.7400    -3.7310     9.0690 o          1 VC6      -0.673000
     19 O2A          4.1630    -4.1290     7.0230 o          1 VC6      -0.673000
     20 O3A          2.0180    -5.4450     7.2110 os         1 VC6      -0.496800
     21 PB           2.4200    -6.9880     7.4310 p5         1 VC6       0.682600
     22 O1B          3.7470    -7.3240     6.5810 o          1 VC6      -0.449000
     23 O2B          2.6800    -7.2300     8.8670 o          1 VC6      -0.449000
     24 C3B          1.0540    -8.0580     6.8720 c3         1 VC6       0.630300
     25 Cl1          0.7380    -7.7630     5.1220 cl         1 VC6      -0.076400
     26 F4B         -0.0980    -7.7670     7.6100 f          1 VC6      -0.194300
     27 PG           1.5100    -9.8060     7.1220 p5         1 VC6       0.462700
     28 O2G          1.7930   -10.0680     8.6840 o          1 VC6      -0.509500
     29 O1G          0.3030   -10.7500     6.6290 o          1 VC6      -0.509500
     30 O3G          2.7290   -10.1150     6.3400 o          1 VC6      -0.509500
     31 H1          -0.3400     0.7250    -1.7810 hn         1 VC6       0.068800
     32 H2          -1.6640     0.1580    -1.0100 hn         1 VC6       0.068800
     33 H3           1.9520    -0.1900    -0.9190 ha         1 VC6       0.046000
     34 H4           3.1370    -0.1580     1.2120 h4         1 VC6       0.089000
     35 H5           3.1160    -0.0800     3.4870 h2         1 VC6       0.002700
     36 H6           2.3820     2.0970     4.1560 hc         1 VC6       0.034700
     37 H7           0.6740     1.5720     4.2850 hc         1 VC6       0.034700
     38 H8           1.3500     1.3710     6.5770 h1         1 VC6      -0.016300
     39 H9           3.5010     1.7330     6.6720 ho         1 VC6       0.353000
     40 H10          0.5150    -0.7590     6.2000 h1         1 VC6       0.031700
     41 H11          3.4670    -1.5010     6.2120 h1         1 VC6      -0.018300
     42 H12          2.5320    -1.1260     7.6670 h1         1 VC6      -0.018300
     43 H43         -0.5990    -0.8950    -1.6290 hn         1 VC6       0.068800
@<TRIPOS>BOND
     1     1     2 1   
     2     1     3 1   
     3     1     5 2   
     4     2    31 1   
     5     2    32 1   
     6     2    43 1   
     7     3     4 2   
     8     3    33 1   
     9     4     8 1   
    10     4    34 1   
    11     5     6 1   
    12     6     7 2   
    13     6     8 1   
    14     8     9 1   
    15     9    10 1   
    16     9    13 1   
    17     9    35 1   
    18    10    11 1   
    19    10    36 1   
    20    10    37 1   
    21    11    12 1   
    22    11    14 1   
    23    11    38 1   
    24    12    39 1   
    25    13    14 1   
    26    14    15 1   
    27    14    40 1   
    28    15    16 1   
    29    15    41 1   
    30    15    42 1   
    31    16    17 1   
    32    17    18 1   
    33    17    19 1   
    34    17    20 1   
    35    20    21 1   
    36    21    22 1   
    37    21    23 1   
    38    21    24 1   
    39    24    25 1   
    40    24    26 1   
    41    24    27 1   
    42    27    28 1   
    43    27    29 1   
    44    27    30 1   
@<TRIPOS>SUBSTRUCTURE
     1 VC6         1 TEMP              0 ****  ****    0 ROOT
