@<TRIPOS>MOLECULE
molecule
   43    44     1     0     0
SMALL
bcc


@<TRIPOS>ATOM
      1 C4           0.0000     0.0000     0.0000 cc         1 VC6       0.187500
      2 N4          -0.6920    -0.0010    -1.1890 nz         1 VC6      -0.631600
      3 C5           1.4100     0.0000     0.0000 cc         1 VC6      -0.307600
      4 C6           2.0660     0.0000     1.1850 cd         1 VC6      -0.062400
      5 N3          -0.6570     0.0070     1.1530 nd         1 VC6      -0.844100
      6 C2           0.0040     0.0070     2.3100 c          1 VC6       0.855900
      7 O2          -0.6230     0.0120     3.3570 o          1 VC6      -0.715500
      8 N1           1.3490     0.0010     2.3430 n          1 VC6      -0.384000
      9 C1'          2.0460     0.0020     3.6320 c3         1 VC6       0.328500
     10 C2'          1.7100     1.2900     4.4250 c3         1 VC6      -0.157400
     11 C3'          1.9660     0.8150     5.8800 c3         1 VC6       0.101100
     12 O3'          3.3500     0.9220     6.2150 oh         1 VC6      -0.588800
     13 O4'          1.5740    -1.0780     4.4540 os         1 VC6      -0.363600
     14 C4'          1.5260    -0.6640     5.8240 c3         1 VC6       0.149100
     15 C5'          2.4810    -1.5200     6.6590 c3         1 VC6       0.230400
     16 O5'          2.0020    -2.8660     6.6980 os         1 VC6      -0.601200
     17 PA           2.7620    -4.0450     7.4890 p5         1 VC6       1.444800
     18 O1A          2.7400    -3.7310     9.0690 o          1 VC6      -0.842000
     19 O2A          4.1630    -4.1290     7.0230 o          1 VC6      -0.842000
     20 O3A          2.0180    -5.4450     7.2110 os         1 VC6      -0.705800
     21 PB           2.4200    -6.9880     7.4310 p5         1 VC6       1.196600
     22 O1B          3.7470    -7.3240     6.5810 o          1 VC6      -0.648500
     23 O2B          2.6800    -7.2300     8.8670 o          1 VC6      -0.648500
     24 C3B          1.0540    -8.0580     6.8720 c3         1 VC6       0.194300
     25 Cl1          0.7380    -7.7630     5.1220 cl         1 VC6      -0.181400
     26 F4B         -0.0980    -7.7670     7.6100 f          1 VC6      -0.198300
     27 PG           1.5100    -9.8060     7.1220 p5         1 VC6       0.921700
     28 O2G          1.7930   -10.0680     8.6840 o          1 VC6      -0.630167
     29 O1G          0.3030   -10.7500     6.6290 o          1 VC6      -0.630167
     30 O3G          2.7290   -10.1150     6.3400 o          1 VC6      -0.630167
     31 H1          -0.3400     0.7250    -1.7810 hn         1 VC6       0.364133
     32 H2          -1.6640     0.1580    -1.0100 hn         1 VC6       0.364133
     33 H3           1.9520    -0.1900    -0.9190 ha         1 VC6       0.076000
     34 H4           3.1370    -0.1580     1.2120 h4         1 VC6       0.124000
     35 H5           3.1160    -0.0800     3.4870 h2         1 VC6       0.052700
     36 H6           2.3820     2.0970     4.1560 hc         1 VC6       0.057700
     37 H7           0.6740     1.5720     4.2850 hc         1 VC6       0.057700
     38 H8           1.3500     1.3710     6.5770 h1         1 VC6       0.026700
     39 H9           3.5010     1.7330     6.6720 ho         1 VC6       0.376000
     40 H10          0.5150    -0.7590     6.2000 h1         1 VC6       0.076700
     41 H11          3.4670    -1.5010     6.2120 h1         1 VC6       0.032200
     42 H12          2.5320    -1.1260     7.6670 h1         1 VC6       0.032200
     43 H43         -0.5990    -0.8950    -1.6290 hn         1 VC6       0.364133
@<TRIPOS>BOND
     1     7     6 2
     2     6     5 1
     3     6     8 1
     4    10     9 1
     5    10    11 1
     6     5     1 2
     7     9     8 1
     8     9    13 1
     9     8     4 1
    10    12    11 1
    11    11    14 1
    12     1     2 1
    13     1     3 1
    14    13    14 1
    15     4     3 2
    16    14    15 1
    17    23    21 1
    18    15    16 1
    19    21    20 1
    20    21    22 1
    21    21    24 1
    22    20    17 1
    23    16    17 1
    24    26    24 1
    25    24    25 1
    26    24    27 1
    27    17    19 1
    28    17    18 1
    29    30    27 1
    30    27    28 1
    31    27    29 1
    32     2    31 1
    33     2    32 1
    34     3    33 1
    35     4    34 1
    36     9    35 1
    37    10    36 1
    38    10    37 1
    39    11    38 1
    40    12    39 1
    41    14    40 1
    42    15    41 1
    43    15    42 1
    44    43     2 1
@<TRIPOS>SUBSTRUCTURE
     1 VC6         1 TEMP              0 ****  ****    0 ROOT
