@<TRIPOS>MOLECULE
molecule
   43    44     1     0     0
SMALL
bcc


@<TRIPOS>ATOM
      1 C4           0.0000     0.0000     0.0000 cc         1 VC8       0.195500
      2 N4          -0.6920     0.0000    -1.1880 nz         1 VC8      -0.631600
      3 C5           1.4090     0.0000     0.0000 cc         1 VC8      -0.310600
      4 C6           2.0670     0.0000     1.1840 cd         1 VC8      -0.050400
      5 N3          -0.6560     0.0080     1.1540 nd         1 VC8      -0.838100
      6 C2           0.0040     0.0080     2.3110 c          1 VC8       0.855900
      7 O2          -0.6220     0.0140     3.3580 o          1 VC8      -0.707500
      8 N1           1.3500     0.0020     2.3430 n          1 VC8      -0.382000
      9 C1'          2.0470     0.0020     3.6310 c3         1 VC8       0.326500
     10 C2'          1.7120     1.2900     4.4240 c3         1 VC8      -0.157400
     11 C3'          1.9680     0.8160     5.8800 c3         1 VC8       0.102100
     12 O3'          3.3530     0.9230     6.2150 oh         1 VC8      -0.588800
     13 O4'          1.5760    -1.0770     4.4540 os         1 VC8      -0.362600
     14 C4'          1.5280    -0.6630     5.8240 c3         1 VC8       0.148100
     15 C5'          2.4830    -1.5190     6.6590 c3         1 VC8       0.230400
     16 O5'          2.0040    -2.8650     6.6980 os         1 VC8      -0.600200
     17 PA           2.7640    -4.0440     7.4890 p5         1 VC8       1.445800
     18 O1A          2.7420    -3.7300     9.0680 o          1 VC8      -0.844000
     19 O2A          4.1650    -4.1290     7.0220 o          1 VC8      -0.844000
     20 O3A          2.0190    -5.4440     7.2110 os         1 VC8      -0.709800
     21 PB           2.4210    -6.9880     7.4310 p5         1 VC8       1.247600
     22 O1B          3.7470    -7.3230     6.5810 o          1 VC8      -0.656000
     23 O2B          2.6820    -7.2290     8.8670 o          1 VC8      -0.656000
     24 C3B          1.0550    -8.0570     6.8730 c3         1 VC8       0.034400
     25 Cl1          0.7370    -7.7620     5.1230 cl         1 VC8      -0.169400
     26 Cl2         -0.4300    -7.6810     7.8250 cl         1 VC8      -0.169400
     27 PG           1.5090    -9.8050     7.1230 p5         1 VC8       1.007700
     28 O2G          1.7930   -10.0670     8.6860 o          1 VC8      -0.646833
     29 O1G          0.3030   -10.7490     6.6300 o          1 VC8      -0.646833
     30 O3G          2.7280   -10.1130     6.3420 o          1 VC8      -0.646833
     31 H1          -0.4550     0.8190    -1.7130 hn         1 VC8       0.368800
     32 H2          -0.4500    -0.8150    -1.7160 hn         1 VC8       0.368800
     33 H3           1.9590    -0.0010    -0.9340 ha         1 VC8       0.076000
     34 H4           3.1500    -0.0020     1.2100 h4         1 VC8       0.126000
     35 H5           3.1180    -0.0800     3.4850 h2         1 VC8       0.054700
     36 H6           2.3840     2.0960     4.1550 hc         1 VC8       0.057200
     37 H7           0.6760     1.5730     4.2840 hc         1 VC8       0.057200
     38 H8           1.3530     1.3720     6.5770 h1         1 VC8       0.027700
     39 H9           3.5010     1.7240     6.6890 ho         1 VC8       0.376000
     40 H10          0.5160    -0.7580     6.2000 h1         1 VC8       0.077700
     41 H11          3.4700    -1.5000     6.2120 h1         1 VC8       0.032700
     42 H12          2.5340    -1.1250     7.6670 h1         1 VC8       0.032700
     43 H43         -1.6750     0.0240    -1.0020 hn         1 VC8       0.368800
@<TRIPOS>BOND
     1     7     6 2
     2     6     5 1
     3     6     8 1
     4    10     9 1
     5    10    11 1
     6     5     1 2
     7     9     8 1
     8     9    13 1
     9     8     4 1
    10    12    11 1
    11    11    14 1
    12     1     2 1
    13     1     3 1
    14    13    14 1
    15     4     3 2
    16    14    15 1
    17    23    21 1
    18    15    16 1
    19    21    20 1
    20    21    22 1
    21    21    24 1
    22    20    17 1
    23    16    17 1
    24    26    24 1
    25    17    19 1
    26    17    18 1
    27    24    25 1
    28    24    27 1
    29    30    27 1
    30    27    28 1
    31    27    29 1
    32     2    31 1
    33     2    32 1
    34     3    33 1
    35     4    34 1
    36     9    35 1
    37    10    36 1
    38    10    37 1
    39    11    38 1
    40    12    39 1
    41    14    40 1
    42    15    41 1
    43    15    42 1
    44    43     2 1
@<TRIPOS>SUBSTRUCTURE
     1 VC8         1 TEMP              0 ****  ****    0 ROOT
