@<TRIPOS>MOLECULE
molecule
   43    44     1     0     0
SMALL
bcc


@<TRIPOS>ATOM
      1 C4           0.0000     0.0000     0.0000 cc         1 VC9       0.201500
      2 N4          -0.6920    -0.0010    -1.1890 nz         1 VC9      -0.633600
      3 C5           1.4100     0.0000     0.0000 cc         1 VC9      -0.310600
      4 C6           2.0670     0.0000     1.1840 cd         1 VC9      -0.058400
      5 N3          -0.6560     0.0040     1.1540 nd         1 VC9      -0.830100
      6 C2           0.0040     0.0050     2.3100 c          1 VC9       0.852900
      7 O2          -0.6210     0.0080     3.3580 o          1 VC9      -0.681500
      8 N1           1.3500    -0.0010     2.3430 n          1 VC9      -0.379000
      9 C1'          2.0480    -0.0020     3.6310 c3         1 VC9       0.315500
     10 C2'          1.7080     1.2780     4.4270 c3         1 VC9      -0.147400
     11 C3'          1.6250     0.7970     5.8940 c3         1 VC9       0.107100
     12 O3'          2.6070     1.4590     6.6940 oh         1 VC9      -0.614800
     13 O4'          1.5760    -1.0870     4.4580 os         1 VC9      -0.351600
     14 C4'          1.9250    -0.7150     5.8100 c3         1 VC9       0.132100
     15 C5'          1.0650    -1.4870     6.8130 c3         1 VC9       0.240400
     16 O5'          1.4400    -2.8640     6.8020 os         1 VC9      -0.598200
     17 PA           0.7390    -3.9710     7.7380 p5         1 VC9       1.439800
     18 O1A         -0.8060    -4.1330     7.3140 o          1 VC9      -0.838500
     19 O2A          0.8200    -3.5440     9.1520 o          1 VC9      -0.838500
     20 O3A          1.4940    -5.3820     7.5600 os         1 VC9      -0.712800
     21 PB           1.5040    -6.7590     8.3940 p5         1 VC9       1.318600
     22 O1B          2.0180    -6.4750     9.8930 o          1 VC9      -0.670000
     23 O2B          0.1340    -7.3170     8.4400 o          1 VC9      -0.670000
     24 C3B          2.6190    -7.9520     7.5840 c3         1 VC9      -0.160600
     25 Br1          4.4400    -7.2100     7.5240 br         1 VC9      -0.166900
     26 Br2          1.9920    -8.2980     5.7540 br         1 VC9      -0.166900
     27 PG           2.6300    -9.5110     8.5280 p5         1 VC9       1.048700
     28 O2G          1.1400   -10.1190     8.5780 o          1 VC9      -0.615167
     29 O1G          3.6160   -10.5650     7.8140 o          1 VC9      -0.615167
     30 O3G          3.1020    -9.2510     9.9060 o          1 VC9      -0.615167
     31 H1          -1.6750    -0.0070    -1.0030 hn         1 VC9       0.370467
     32 H2          -0.4470    -0.8150    -1.7170 hn         1 VC9       0.370467
     33 H3           1.9600     0.0010    -0.9330 ha         1 VC9       0.074000
     34 H4           3.1500    -0.0020     1.2100 h4         1 VC9       0.120000
     35 H5           3.1180    -0.0790     3.4860 h2         1 VC9       0.033700
     36 H6           0.7540     1.6810     4.1070 hc         1 VC9       0.053200
     37 H7           2.4950     2.0140     4.3140 hc         1 VC9       0.053200
     38 H8           0.6310     0.9630     6.2890 h1         1 VC9       0.057700
     39 H9           2.1910     2.1280     7.2110 ho         1 VC9       0.383000
     40 H10          2.9780    -0.8990     5.9880 h1         1 VC9       0.056700
     41 H11          1.2150    -1.0790     7.8060 h1         1 VC9       0.037200
     42 H12          0.0210    -1.3950     6.5390 h1         1 VC9       0.037200
     43 H43         -0.4490     0.8140    -1.7170 hn         1 VC9       0.370467
@<TRIPOS>BOND
     1     7     6 2
     2     6     5 1
     3     6     8 1
     4    10     9 1
     5    10    11 1
     6     5     1 2
     7     9     8 1
     8     9    13 1
     9     8     4 1
    10    12    11 1
    11    11    14 1
    12     1     2 1
    13     1     3 1
    14    13    14 1
    15    14    15 1
    16     4     3 2
    17    23    21 1
    18    15    16 1
    19    16    17 1
    20    20    21 1
    21    20    17 1
    22    21    22 1
    23    21    24 1
    24    26    24 1
    25    17    19 1
    26    17    18 1
    27    24    25 1
    28    24    27 1
    29    30    27 1
    30    27    28 1
    31    27    29 1
    32     2    31 1
    33     2    32 1
    34     3    33 1
    35     4    34 1
    36     9    35 1
    37    10    36 1
    38    10    37 1
    39    11    38 1
    40    12    39 1
    41    14    40 1
    42    15    41 1
    43    15    42 1
    44    43     2 1
@<TRIPOS>SUBSTRUCTURE
     1 VC9         1 TEMP              0 ****  ****    0 ROOT
