@<TRIPOS>MOLECULE
VC9
   43    44     1     0     0
SMALL
bcc


@<TRIPOS>ATOM
      1 C4           0.0000     0.0000     0.0000 cc         1 VC9      -0.164500
      2 N4          -0.6920    -0.0010    -1.1890 nz         1 VC9       0.348400
      3 C5           1.4100     0.0000     0.0000 cc         1 VC9      -0.220600
      4 C6           2.0670     0.0000     1.1840 cd         1 VC9      -0.254400
      5 N3          -0.6560     0.0040     1.1540 nd         1 VC9      -0.864100
      6 C2           0.0040     0.0050     2.3100 c          1 VC9       0.758900
      7 O2          -0.6210     0.0080     3.3580 o          1 VC9      -0.798500
      8 N1           1.3500    -0.0010     2.3430 n          1 VC9      -0.020000
      9 C1'          2.0480    -0.0020     3.6310 c3         1 VC9       0.248500
     10 C2'          1.7080     1.2780     4.4270 c3         1 VC9      -0.118400
     11 C3'          1.6250     0.7970     5.8940 c3         1 VC9       0.154100
     12 O3'          2.6070     1.4590     6.6940 oh         1 VC9      -0.601800
     13 O4'          1.5760    -1.0870     4.4580 os         1 VC9      -0.340600
     14 C4'          1.9250    -0.7150     5.8100 c3         1 VC9       0.147100
     15 C5'          1.0650    -1.4870     6.8130 c3         1 VC9       0.312400
     16 O5'          1.4400    -2.8640     6.8020 os         1 VC9      -0.498200
     17 PA           0.7390    -3.9710     7.7380 p5         1 VC9       0.967800
     18 O1A         -0.8060    -4.1330     7.3140 o          1 VC9      -0.667500
     19 O2A          0.8200    -3.5440     9.1520 o          1 VC9      -0.667500
     20 O3A          1.4940    -5.3820     7.5600 os         1 VC9      -0.488800
     21 PB           1.5040    -6.7590     8.3940 p5         1 VC9       0.693600
     22 O1B          2.0180    -6.4750     9.8930 o          1 VC9      -0.456500
     23 O2B          0.1340    -7.3170     8.4400 o          1 VC9      -0.456500
     24 C3B          2.6190    -7.9520     7.5840 c3         1 VC9       0.600400
     25 Br1          4.4400    -7.2100     7.5240 br         1 VC9      -0.226900
     26 Br2          1.9920    -8.2980     5.7540 br         1 VC9      -0.226900
     27 PG           2.6300    -9.5110     8.5280 p5         1 VC9       0.502700
     28 O2G          1.1400   -10.1190     8.5780 o          1 VC9      -0.474500
     29 O1G          3.6160   -10.5650     7.8140 o          1 VC9      -0.474500
     30 O3G          3.1020    -9.2510     9.9060 o          1 VC9      -0.474500
     31 H1          -1.6750    -0.0070    -1.0030 hn         1 VC9       0.072467
     32 H2          -0.4470    -0.8150    -1.7170 hn         1 VC9       0.072467
     33 H3           1.9600     0.0010    -0.9330 ha         1 VC9       0.046000
     34 H4           3.1500    -0.0020     1.2100 h4         1 VC9       0.085000
     35 H5           3.1180    -0.0790     3.4860 h2         1 VC9      -0.012300
     36 H6           0.7540     1.6810     4.1070 hc         1 VC9       0.029200
     37 H7           2.4950     2.0140     4.3140 hc         1 VC9       0.029200
     38 H8           0.6310     0.9630     6.2890 h1         1 VC9       0.020700
     39 H9           2.1910     2.1280     7.2110 ho         1 VC9       0.364000
     40 H10          2.9780    -0.8990     5.9880 h1         1 VC9       0.009700
     41 H11          1.2150    -1.0790     7.8060 h1         1 VC9      -0.013300
     42 H12          0.0210    -1.3950     6.5390 h1         1 VC9      -0.013300
     43 H43         -0.4490     0.8140    -1.7170 hn         1 VC9       0.072467
@<TRIPOS>BOND
     1     1     2 1   
     2     1     3 1   
     3     1     5 2   
     4     2    31 1   
     5     2    32 1   
     6     2    43 1   
     7     3     4 2   
     8     3    33 1   
     9     4     8 1   
    10     4    34 1   
    11     5     6 1   
    12     6     7 2   
    13     6     8 1   
    14     8     9 1   
    15     9    10 1   
    16     9    13 1   
    17     9    35 1   
    18    10    11 1   
    19    10    36 1   
    20    10    37 1   
    21    11    12 1   
    22    11    14 1   
    23    11    38 1   
    24    12    39 1   
    25    13    14 1   
    26    14    15 1   
    27    14    40 1   
    28    15    16 1   
    29    15    41 1   
    30    15    42 1   
    31    16    17 1   
    32    17    18 1   
    33    17    19 1   
    34    17    20 1   
    35    20    21 1   
    36    21    22 1   
    37    21    23 1   
    38    21    24 1   
    39    24    25 1   
    40    24    26 1   
    41    24    27 1   
    42    27    28 1   
    43    27    29 1   
    44    27    30 1   
@<TRIPOS>SUBSTRUCTURE
     1 VC9         1 TEMP              0 ****  ****    0 ROOT
