@<TRIPOS>MOLECULE
VCA
   53    52     1     0     0
SMALL
bcc


@<TRIPOS>ATOM
      1 O2          0.2040    1.1950    0.5570 o         1 VCA     -0.853800
      2 C1          1.2560    0.4920    0.5700 c         1 VCA      0.907600
      3 O1          1.7520   -0.0130    1.6190 o         1 VCA     -0.853800
      4 C2          1.9510    0.2210   -0.7760 c3        1 VCA     -0.194400
      5 C3          3.4420    0.4260   -0.6750 c3        1 VCA     -0.065400
      6 C4          4.1600   -0.0150   -1.9340 c3        1 VCA     -0.078400
      7 C5          5.6530    0.2140   -1.8290 c3        1 VCA     -0.078400
      8 C6          6.3730   -0.2370   -3.0830 c3        1 VCA     -0.078400
      9 C7          7.8650   -0.0050   -2.9770 c3        1 VCA     -0.079400
     10 C8          8.5840   -0.4600   -4.2290 c3        1 VCA     -0.079400
     11 C9         10.0760   -0.2260   -4.1240 c3        1 VCA     -0.077400
     12 C10        10.7920   -0.6850   -5.3770 c3        1 VCA     -0.051200
     13 C11        12.2560   -0.4660   -5.3030 c2        1 VCA     -0.164200
     14 C12        13.1110   -0.8250   -6.2660 c2        1 VCA     -0.185200
     15 C13        12.6990   -1.4900   -7.5250 c3        1 VCA     -0.047200
     16 C14        13.8700   -1.7430   -8.4510 c3        1 VCA     -0.076400
     17 C15        13.4200   -2.4220   -9.7270 c3        1 VCA     -0.080400
     18 C16        14.5880   -2.6760  -10.6560 c3        1 VCA     -0.078400
     19 C17        14.1400   -3.3560  -11.9320 c3        1 VCA     -0.080400
     20 C18        15.3000   -3.6120  -12.8600 c3        1 VCA     -0.092100
     21 H21         1.7290   -0.8380   -1.0680 hc        1 VCA      0.018700
     22 H22         1.5170    0.8910   -1.5600 hc        1 VCA      0.018700
     23 H31         3.8250   -0.1500    0.2100 hc        1 VCA      0.043700
     24 H32         3.6580    1.5090   -0.4810 hc        1 VCA      0.043700
     25 H41         3.9600   -1.1030   -2.1180 hc        1 VCA      0.025700
     26 H42         3.7550    0.5480   -2.8150 hc        1 VCA      0.025700
     27 H51         6.0550   -0.3440   -0.9430 hc        1 VCA      0.036700
     28 H52         5.8540    1.3030   -1.6520 hc        1 VCA      0.036700
     29 H61         5.9680    0.3180   -3.9690 hc        1 VCA      0.034200
     30 H62         6.1740   -1.3280   -3.2580 hc        1 VCA      0.034200
     31 H71         8.0640    1.0850   -2.8040 hc        1 VCA      0.038200
     32 H72         8.2690   -0.5590   -2.0890 hc        1 VCA      0.038200
     33 H81         8.1780    0.0920   -5.1170 hc        1 VCA      0.037200
     34 H82         8.3860   -1.5510   -4.4000 hc        1 VCA      0.037200
     35 H91        10.4810   -0.7770   -3.2350 hc        1 VCA      0.040200
     36 H92        10.2740    0.8660   -3.9550 hc        1 VCA      0.040200
     37 H101       10.3790   -0.1370   -6.2680 hc        1 VCA      0.047700
     38 H102       10.5860   -1.7770   -5.5480 hc        1 VCA      0.047700
     39 H11        12.6240    0.0240   -4.3860 ha        1 VCA      0.122000
     40 H12        14.1910   -0.6340   -6.1520 ha        1 VCA      0.117000
     41 H131       12.1930   -2.4650   -7.2830 hc        1 VCA      0.047700
     42 H132       11.9340   -0.8530   -8.0500 hc        1 VCA      0.047700
     43 H141       14.6300   -2.3840   -7.9320 hc        1 VCA      0.039700
     44 H142       14.3710   -0.7710   -8.6990 hc        1 VCA      0.039700
     45 H151       12.9180   -3.3940   -9.4790 hc        1 VCA      0.040700
     46 H152       12.6600   -1.7810  -10.2470 hc        1 VCA      0.040700
     47 H161       15.0900   -1.7040  -10.9050 hc        1 VCA      0.038700
     48 H162       15.3490   -3.3170  -10.1360 hc        1 VCA      0.038700
     49 H171       13.3780   -2.7150  -12.4490 hc        1 VCA      0.038700
     50 H172       13.6370   -4.3270  -11.6810 hc        1 VCA      0.038700
     51 H181       15.7980   -2.6530  -13.1410 hc        1 VCA      0.031367
     52 H182       16.0580   -4.2700  -12.3710 hc        1 VCA      0.031367
     53 H183       14.9470   -4.1130  -13.7930 hc        1 VCA      0.031367
@<TRIPOS>BOND
     1    1    2 1   
     2    2    3 1   
     3    2    4 1   
     4    4    5 1   
     5    4   21 1   
     6    4   22 1   
     7    5    6 1   
     8    5   23 1   
     9    5   24 1   
    10    6    7 1   
    11    6   25 1   
    12    6   26 1   
    13    7    8 1   
    14    7   27 1   
    15    7   28 1   
    16    8    9 1   
    17    8   29 1   
    18    8   30 1   
    19    9   10 1   
    20    9   31 1   
    21    9   32 1   
    22   10   11 1   
    23   10   33 1   
    24   10   34 1   
    25   11   12 1   
    26   11   35 1   
    27   11   36 1   
    28   12   13 1   
    29   12   37 1   
    30   12   38 1   
    31   13   14 2   
    32   13   39 1   
    33   14   15 1   
    34   14   40 1   
    35   15   16 1   
    36   15   41 1   
    37   15   42 1   
    38   16   17 1   
    39   16   43 1   
    40   16   44 1   
    41   17   18 1   
    42   17   45 1   
    43   17   46 1   
    44   18   19 1   
    45   18   47 1   
    46   18   48 1   
    47   19   20 1   
    48   19   49 1   
    49   19   50 1   
    50   20   51 1   
    51   20   52 1   
    52   20   53 1   
@<TRIPOS>SUBSTRUCTURE
     1 VCA         1 TEMP              0 ****  ****    0 ROOT
