@<TRIPOS>MOLECULE
molecule
   53    52     1     0     0
SMALL
bcc


@<TRIPOS>ATOM
      1 O2           0.0000     0.0000     0.0000 o          1 VCA      -0.857800
      2 C1           1.3420     0.0000     0.0000 c          1 VCA       0.891600
      3 O1           1.9470     0.0000     1.0460 o          1 VCA      -0.857800
      4 C2           2.0960    -0.0000    -1.3050 c3         1 VCA      -0.183400
      5 C3           3.6000    -0.0000    -1.0260 c3         1 VCA      -0.063400
      6 C4           4.3650    -0.0010    -2.3510 c3         1 VCA      -0.088400
      7 C5           5.8690    -0.0010    -2.0720 c3         1 VCA      -0.081400
      8 C6           6.6340    -0.0010    -3.3970 c3         1 VCA      -0.083400
      9 C7           8.1380    -0.0010    -3.1180 c3         1 VCA      -0.080400
     10 C8           8.9030    -0.0010    -4.4430 c3         1 VCA      -0.087400
     11 C9          10.4070    -0.0000    -4.1640 c3         1 VCA      -0.034400
     12 C10         11.1720    -0.0010    -5.4890 c3         1 VCA      -0.150200
     13 C11         12.6540    -0.0010    -5.2140 c2         1 VCA      -0.332200
     14 C12         13.4230    -0.9000    -5.7750 c2         1 VCA      -0.362200
     15 C13         12.8620    -1.8250    -6.8240 c3         1 VCA      -0.142200
     16 C14         13.7240    -1.7480    -8.0850 c3         1 VCA      -0.034400
     17 C15         13.1540    -2.6880    -9.1490 c3         1 VCA      -0.088400
     18 C16         14.0170    -2.6120   -10.4120 c3         1 VCA      -0.079400
     19 C17         13.4460    -3.5510   -11.4760 c3         1 VCA      -0.084400
     20 C18         14.3080    -3.4750   -12.7380 c3         1 VCA      -0.092100
     21 H21          1.8340    -0.8850    -1.8730 hc         1 VCA       0.026200
     22 H22          1.8340     0.8840    -1.8740 hc         1 VCA       0.026200
     23 H31          3.8610     0.8850    -0.4590 hc         1 VCA       0.045700
     24 H32          3.8610    -0.8840    -0.4580 hc         1 VCA       0.045700
     25 H41          4.1030     0.8830    -2.9200 hc         1 VCA       0.028700
     26 H42          4.1030    -0.8860    -2.9190 hc         1 VCA       0.028700
     27 H51          6.1310     0.8840    -1.5040 hc         1 VCA       0.040200
     28 H52          6.1310    -0.8850    -1.5030 hc         1 VCA       0.040200
     29 H61          6.3720     0.8840    -3.9650 hc         1 VCA       0.036200
     30 H62          6.3720    -0.8850    -3.9650 hc         1 VCA       0.036200
     31 H71          8.4000     0.8840    -2.5500 hc         1 VCA       0.043200
     32 H72          8.4000    -0.8850    -2.5500 hc         1 VCA       0.043200
     33 H81          8.6410     0.8830    -5.0120 hc         1 VCA       0.038700
     34 H82          8.6410    -0.8860    -5.0110 hc         1 VCA       0.038700
     35 H91         10.6690    -0.8840    -3.5950 hc         1 VCA       0.057700
     36 H92         10.6690     0.8850    -3.5960 hc         1 VCA       0.057700
     37 H101        10.9100    -0.8850    -6.0570 hc         1 VCA       0.034200
     38 H102        10.9110     0.8840    -6.0570 hc         1 VCA       0.034200
     39 H11         12.2500     0.4870    -6.0930 ha         1 VCA       0.333000
     40 H12         12.8990    -1.8060    -5.4960 ha         1 VCA       0.328000
     41 H131        12.8640    -2.8410    -6.4470 hc         1 VCA       0.034200
     42 H132        11.8480    -1.5290    -7.0610 hc         1 VCA       0.034200
     43 H141        13.7240    -0.7330    -8.4620 hc         1 VCA       0.056200
     44 H142        14.7390    -2.0450    -7.8470 hc         1 VCA       0.056200
     45 H151        12.1400    -2.3920    -9.3870 hc         1 VCA       0.041700
     46 H152        13.1550    -3.7040    -8.7720 hc         1 VCA       0.041700
     47 H161        15.0310    -2.9090   -10.1750 hc         1 VCA       0.043200
     48 H162        14.0160    -1.5960   -10.7890 hc         1 VCA       0.043200
     49 H171        12.4310    -3.2540   -11.7130 hc         1 VCA       0.040700
     50 H172        13.4460    -4.5670   -11.0990 hc         1 VCA       0.040700
     51 H181        13.9040    -4.1400   -13.4920 hc         1 VCA       0.032367
     52 H182        15.3230    -3.7720   -12.5010 hc         1 VCA       0.032367
     53 H183        14.3070    -2.4590   -13.1150 hc         1 VCA       0.032367
@<TRIPOS>BOND
     1     1     2 1
     2     2     3 1
     3     2     4 1
     4     4     5 1
     5     4    21 1
     6     4    22 1
     7     5     6 1
     8     5    23 1
     9     5    24 1
    10     6     7 1
    11     6    25 1
    12     6    26 1
    13     7     8 1
    14     7    27 1
    15     7    28 1
    16     8     9 1
    17     8    29 1
    18     8    30 1
    19     9    10 1
    20     9    31 1
    21     9    32 1
    22    10    11 1
    23    10    33 1
    24    10    34 1
    25    11    12 1
    26    11    35 1
    27    11    36 1
    28    12    13 1
    29    12    37 1
    30    12    38 1
    31    13    14 2
    32    13    39 1
    33    14    15 1
    34    14    40 1
    35    15    16 1
    36    15    41 1
    37    15    42 1
    38    16    17 1
    39    16    43 1
    40    16    44 1
    41    17    18 1
    42    17    45 1
    43    17    46 1
    44    18    19 1
    45    18    47 1
    46    18    48 1
    47    19    20 1
    48    19    49 1
    49    19    50 1
    50    20    51 1
    51    20    52 1
    52    20    53 1
@<TRIPOS>SUBSTRUCTURE
     1 VCA         1 TEMP              0 ****  ****    0 ROOT
