@<TRIPOS>MOLECULE
VCE
   29    29     1     0     0
SMALL
bcc


@<TRIPOS>ATOM
      1 OA'         2.1030    0.6090   -1.4030 o         1 VCE     -0.566500
      2 OA         -0.3590   -1.3220    6.4620 o         1 VCE     -0.588500
      3 OB'         0.9060   -1.2550   -1.1670 o         1 VCE     -0.566500
      4 OB         -1.7890   -3.0060    6.3170 o         1 VCE     -0.588500
      5 C8          2.7650    0.0740    1.5230 c2        1 VCE     -0.201000
      6 C5         -0.2240   -3.8100    2.3060 c3        1 VCE     -0.176000
      7 C4          0.1220   -2.5830    1.5560 c2        1 VCE     -0.164000
      8 C6         -0.5330   -3.6790    3.7350 c1        1 VCE     -0.139000
      9 C10         5.2600   -0.5370    1.2890 c3        1 VCE     -0.400000
     10 C11         5.1980    0.9160    1.5880 c1        1 VCE      0.117000
     11 O3          0.4140   -0.1980    1.5160 os        1 VCE     -0.177000
     12 C'          1.5240   -0.2630   -0.6910 c2        1 VCE      0.364000
     13 C7          1.6330   -0.1390    0.8240 c2        1 VCE      0.023000
     14 C2         -0.0900   -1.2970    3.6340 c2        1 VCE      0.227000
     15 C3          0.1930   -1.3940    2.2000 c2        1 VCE     -0.015000
     16 C1         -0.5120   -2.4250    4.3460 c2        1 VCE     -0.313000
     17 C9          4.0590    0.2880    0.8790 c3        1 VCE     -0.239000
     18 HO2        -0.0690   -0.0970    5.1330 ho        1 VCE      0.290000
     19 H8          2.7460    0.0900    2.6240 ha        1 VCE      0.122000
     20 H5          0.6260   -4.5450    2.2150 hc        1 VCE      0.116000
     21 H4          0.3230   -2.6340    0.4690 ha        1 VCE      0.181000
     22 H6         -1.1220   -4.2920    1.8210 hc        1 VCE      0.116000
     23 H10         4.0640    0.6940   -2.4570 ha        1 VCE     -0.000500
     24 H10A        4.7050    0.7740   -2.6700 ha        1 VCE     -0.000500
     25 H11         5.1550   -1.2600    2.1190 hc        1 VCE      0.129000
     26 H11A        5.9310   -0.9240    0.5030 hc        1 VCE      0.129000
     27 H9          3.9360    0.5220   -0.2140 hc        1 VCE      0.207000
     28 C          -0.9130   -2.2680    5.7960 c2        1 VCE      0.381000
     29 O2          0.1090   -0.0720    4.1580 oh        1 VCE     -0.267000
@<TRIPOS>BOND
     1    1   12 1   
     2    2   28 1   
     3    3   12 1   
     4    4   28 1   
     5    5   13 1   
     6    5   17 1   
     7    5   19 1   
     8    6    7 1   
     9    6    8 1   
    10    6   20 1   
    11    6   22 1   
    12    7   15 1   
    13    7   21 1   
    14    8   16 1   
    15    9   10 1   
    16    9   17 1   
    17    9   25 1   
    18    9   26 1   
    19   10   17 1   
    20   11   13 1   
    21   11   15 1   
    22   12   13 1   
    23   14   15 1   
    24   14   16 1   
    25   14   29 1   
    26   16   28 1   
    27   17   27 1   
    28   18   29 1   
    29   23   24 1   
@<TRIPOS>SUBSTRUCTURE
     1 VCE         1 TEMP              0 ****  ****    0 ROOT
