@<TRIPOS>MOLECULE
molecule
   29    30     1     0     0
SMALL
bcc


@<TRIPOS>ATOM
      1 OA'          0.0000     0.0000     0.0000 o          1 VCE      -0.827800
      2 OA          -1.7780    -1.6630     6.0320 o          1 VCE      -0.851300
      3 OB'          1.9560     0.0000    -1.0520 o          1 VCE      -0.827800
      4 OB          -2.4330    -3.7060     5.4610 o          1 VCE      -0.851300
      5 C8           3.4160     0.0910     1.2780 c2         1 VCE      -0.224200
      6 C5           0.0060    -3.4290     2.0180 ca         1 VCE      -0.151000
      7 C4           0.7420    -2.2780     1.7890 ca         1 VCE      -0.171000
      8 C6          -0.7940    -3.5340     3.1360 ca         1 VCE      -0.129000
      9 C10          5.0230    -0.7630    -0.5720 cx         1 VCE      -0.170400
     10 C11          5.6800     0.4640     0.0620 cx         1 VCE      -0.170400
     11 O3           1.4070    -0.0940     2.4520 os         1 VCE      -0.254200
     12 C'           1.3480     0.0000     0.0000 c          1 VCE       0.858800
     13 C7           2.0840     0.0000     1.2760 ce         1 VCE       0.057900
     14 C2          -0.1200    -1.3120     3.8170 ca         1 VCE       0.096100
     15 C3           0.6820    -1.2210     2.6830 ca         1 VCE       0.109100
     16 C1          -0.8650    -2.4750     4.0460 ca         1 VCE      -0.111600
     17 C9           4.1540     0.3620    -0.0070 cx         1 VCE       0.001500
     18 HO2          0.6130    -0.2500     5.2020 ho         1 VCE       0.388000
     19 H8           3.9540     0.0900     2.2180 ha         1 VCE       0.103000
     20 H5           0.0590    -4.2510     1.3140 ha         1 VCE       0.096000
     21 H4           1.3670    -2.2040     0.9080 ha         1 VCE       0.142000
     22 H6          -1.3670    -4.4370     3.3090 ha         1 VCE       0.138000
     23 H10          5.0570    -1.6700     0.0190 hc         1 VCE       0.054950
     24 H10A         5.0760    -0.8140    -1.6530 hc         1 VCE       0.054950
     25 H11          6.1150     0.3070     1.0420 hc         1 VCE       0.054950
     26 H11A         6.1330     1.1630    -0.6300 hc         1 VCE       0.054950
     27 H9           3.6910     0.9960    -0.7530 hc         1 VCE       0.120700
     28 C           -1.7180    -2.5840     5.2430 c          1 VCE       0.891200
     29 O2          -0.1810    -0.2780     4.6940 oh         1 VCE      -0.479100
@<TRIPOS>BOND
     1     1    12 1
     2     2    28 1
     3     3    12 1
     4     4    28 1
     5    29    14 1
     6     5    13 2
     7     5    17 1
     8     6     7 ar
     9     6     8 ar
    10     7    15 ar
    11     8    16 ar
    12     9    10 1
    13     9    17 1
    14    10    17 1
    15    11    13 1
    16    11    15 1
    17    12    13 1
    18    28    16 1
    19    14    15 ar
    20    14    16 ar
    21    29    18 1
    22     5    19 1
    23     6    20 1
    24     7    21 1
    25     8    22 1
    26     9    23 1
    27     9    24 1
    28    10    25 1
    29    10    26 1
    30    17    27 1
@<TRIPOS>SUBSTRUCTURE
     1 VCE         1 TEMP              0 ****  ****    0 ROOT
