@<TRIPOS>MOLECULE
molecule
   61    63     1     0     0
SMALL
bcc


@<TRIPOS>ATOM
      1 O2           0.0000     0.0000     0.0000 oh         1 VD1      -0.603800
      2 C3           1.4290     0.0000     0.0000 c3         1 VD1       0.193800
      3 C2           1.9370     0.0000     1.4240 c2         1 VD1      -0.152400
      4 C28          2.6190     1.0170     1.8880 c2         1 VD1      -0.192000
      5 C1           1.6430    -1.1950     2.3010 c3         1 VD1       0.193800
      6 O1           2.3070    -1.0420     3.5580 oh         1 VD1      -0.603800
      7 C4           1.9430    -1.2620    -0.7040 c3         1 VD1      -0.049700
      8 C5           1.6500    -2.4580     0.1740 c2         1 VD1      -0.111400
      9 C10          2.1590    -2.4580     1.5980 c3         1 VD1      -0.049700
     10 C6           0.9580    -3.4890    -0.2960 ce         1 VD1      -0.131000
     11 C7           0.7920    -4.6990     0.5230 ce         1 VD1      -0.153000
     12 C8           0.1900    -5.7690     0.0150 c2         1 VD1      -0.095400
     13 C9          -0.3480    -5.8010    -1.4090 c3         1 VD1      -0.043200
     14 C11          0.1440    -7.0470    -2.1440 c3         1 VD1      -0.079400
     15 C12         -0.0620    -8.3220    -1.3080 c3         1 VD1      -0.067400
     16 C13          0.7020    -8.1470    -0.0160 c3         1 VD1      -0.061000
     17 C18          2.1330    -7.7070    -0.3300 c3         1 VD1      -0.092100
     18 C14         -0.0030    -7.0320     0.8000 c3         1 VD1      -0.034500
     19 C15          0.7380    -7.1300     2.1350 c3         1 VD1      -0.078400
     20 C17          0.7360    -9.3080     0.9650 c3         1 VD1      -0.055700
     21 C16          0.8480    -8.6660     2.3540 c3         1 VD1      -0.080400
     22 C20          1.9650   -10.1830     0.7100 c3         1 VD1      -0.070700
     23 C21          1.9810   -11.3440     1.7060 c3         1 VD1      -0.090100
     24 C22          1.9110   -10.7350    -0.7160 c3         1 VD1      -0.089400
     25 C23          3.1990   -11.5070    -1.0130 c3         1 VD1      -0.092100
     26 HO2         -0.3140     0.8030    -0.3810 ho         1 VD1       0.401500
     27 H3           1.7970     0.8780    -0.5160 h1         1 VD1       0.046200
     28 H281         2.8230     1.8680     1.2510 ha         1 VD1       0.122000
     29 H282         2.9780     1.0070     2.9100 ha         1 VD1       0.122000
     30 H1           0.5740    -1.2770     2.4560 h1         1 VD1       0.046200
     31 HO1          1.7150    -1.2700     4.2560 ho         1 VD1       0.401500
     32 H41          1.4390    -1.3790    -1.6560 hc         1 VD1       0.058200
     33 H42          3.0120    -1.1800    -0.8610 hc         1 VD1       0.058200
     34 H101         3.2420    -2.4560     1.5970 hc         1 VD1       0.058200
     35 H102         1.7910    -3.3360     2.1150 hc         1 VD1       0.058200
     36 H6           0.5980    -3.4760    -1.3180 ha         1 VD1       0.131000
     37 H7           1.1610    -4.7180     1.5410 ha         1 VD1       0.135000
     38 H91         -0.0090    -4.9190    -1.9370 hc         1 VD1       0.050200
     39 H92         -1.4310    -5.8110    -1.3790 hc         1 VD1       0.050200
     40 H111         1.2000    -6.9340    -2.3590 hc         1 VD1       0.042700
     41 H112        -0.4030    -7.1450    -3.0740 hc         1 VD1       0.042700
     42 H121         0.3220    -9.1790    -1.8470 hc         1 VD1       0.046200
     43 H122        -1.1160    -8.4550    -1.0960 hc         1 VD1       0.046200
     44 H181         2.1430    -6.6500    -0.5690 hc         1 VD1       0.040367
     45 H182         2.5070    -8.2710    -1.1760 hc         1 VD1       0.040367
     46 H183         2.7640    -7.8880     0.5320 hc         1 VD1       0.040367
     47 H14         -1.0550    -7.2550     0.9240 hc         1 VD1       0.066700
     48 H151         0.1590    -6.6720     2.9280 hc         1 VD1       0.047200
     49 H152         1.7220    -6.6830     2.0610 hc         1 VD1       0.047200
     50 H17         -0.1730    -9.8920     0.8910 hc         1 VD1       0.054700
     51 H161         1.8050    -8.9090     2.7990 hc         1 VD1       0.044200
     52 H162         0.0380    -9.0090     2.9870 hc         1 VD1       0.044200
     53 H20          2.8630    -9.5890     0.8330 hc         1 VD1       0.058700
     54 H211         1.7660   -10.9700     2.7000 hc         1 VD1       0.033700
     55 H212         2.9580   -11.8120     1.7000 hc         1 VD1       0.033700
     56 H213         1.2300   -12.0720     1.4240 hc         1 VD1       0.033700
     57 H221         1.8110    -9.9150    -1.4170 hc         1 VD1       0.046200
     58 H222         1.0610   -11.3990    -0.8140 hc         1 VD1       0.046200
     59 H231         3.3490   -11.5590    -2.0850 hc         1 VD1       0.032033
     60 H232         4.0380   -10.9980    -0.5550 hc         1 VD1       0.032033
     61 H233         3.1200   -12.5090    -0.6110 hc         1 VD1       0.032033
@<TRIPOS>BOND
     1     1     2 1
     2     1    26 1
     3     2     3 1
     4     2     7 1
     5     2    27 1
     6     3     4 2
     7     3     5 1
     8     4    28 1
     9     4    29 1
    10     5     6 1
    11     5     9 1
    12     5    30 1
    13     6    31 1
    14     7     8 1
    15     7    32 1
    16     7    33 1
    17     8     9 1
    18     8    10 2
    19     9    34 1
    20     9    35 1
    21    10    11 1
    22    10    36 1
    23    11    12 2
    24    11    37 1
    25    12    13 1
    26    12    18 1
    27    13    14 1
    28    13    38 1
    29    13    39 1
    30    14    15 1
    31    14    40 1
    32    14    41 1
    33    15    16 1
    34    15    42 1
    35    15    43 1
    36    16    17 1
    37    16    18 1
    38    16    20 1
    39    17    44 1
    40    17    45 1
    41    17    46 1
    42    18    19 1
    43    18    47 1
    44    19    21 1
    45    19    48 1
    46    19    49 1
    47    20    21 1
    48    20    22 1
    49    20    50 1
    50    21    51 1
    51    21    52 1
    52    22    23 1
    53    22    24 1
    54    22    53 1
    55    23    54 1
    56    23    55 1
    57    23    56 1
    58    24    25 1
    59    24    57 1
    60    24    58 1
    61    25    59 1
    62    25    60 1
    63    25    61 1
@<TRIPOS>SUBSTRUCTURE
     1 VD1         1 TEMP              0 ****  ****    0 ROOT
