@<TRIPOS>MOLECULE
VD1
   61    63     1     0     0
SMALL
bcc


@<TRIPOS>ATOM
      1 O2         -0.2700    0.3570    0.8900 oh        1 VD1     -0.594300
      2 C3          1.0540    0.2600    0.3720 c3        1 VD1      0.183300
      3 C2          2.0770    0.1550    1.4690 c2        1 VD1     -0.194400
      4 C28         2.9640    1.1200    1.7100 c2        1 VD1     -0.198000
      5 C1          2.0080   -1.1380    2.2270 c3        1 VD1      0.183300
      6 O1          3.0240   -1.2670    3.2120 oh        1 VD1     -0.594300
      7 C4          1.0860   -0.9640   -0.5470 c3        1 VD1     -0.034700
      8 C5          1.1720   -2.2630    0.1800 c2        1 VD1     -0.105400
      9 C10         2.1810   -2.3210    1.2710 c3        1 VD1     -0.034700
     10 C6          0.4050   -3.3030   -0.1940 ce        1 VD1     -0.122000
     11 C7          0.3970   -4.6090    0.4280 ce        1 VD1     -0.146000
     12 C8          0.1310   -5.7640   -0.2050 c2        1 VD1     -0.081400
     13 C9         -0.1970   -5.8750   -1.6600 c3        1 VD1     -0.044200
     14 C11         0.5230   -7.0120   -2.3640 c3        1 VD1     -0.072400
     15 C12         0.5260   -8.3220   -1.5960 c3        1 VD1     -0.067400
     16 C13         1.0210   -8.1120   -0.1720 c3        1 VD1     -0.040000
     17 C18         2.4530   -7.6060   -0.1650 c3        1 VD1     -0.083100
     18 C14         0.0570   -7.0790    0.4810 c3        1 VD1     -0.036500
     19 C15         0.3400   -7.2020    1.9700 c3        1 VD1     -0.074400
     20 C17         0.8600   -9.3190    0.7810 c3        1 VD1     -0.054700
     21 C16         0.6860   -8.6770    2.1740 c3        1 VD1     -0.078400
     22 C20         1.9720  -10.3650    0.7900 c3        1 VD1     -0.054700
     23 C21         1.6570  -11.4390    1.8170 c3        1 VD1     -0.093100
     24 C22         2.1670  -10.9950   -0.5830 c3        1 VD1     -0.078400
     25 C23         3.1580  -12.1320   -0.5780 c3        1 VD1     -0.092100
     26 HO2        -0.2580    1.0510    1.5590 ho        1 VD1      0.400000
     27 H3          1.2550    1.1830   -0.2490 h1        1 VD1      0.044700
     28 H281        2.9880    2.0570    1.1370 ha        1 VD1      0.119500
     29 H282        3.7350    1.0280    2.4870 ha        1 VD1      0.119500
     30 H1          0.9940   -1.1990    2.7230 h1        1 VD1      0.044700
     31 HO1         2.8770   -0.5650    3.8560 ho        1 VD1      0.400000
     32 H41         1.9870   -0.8670   -1.2130 hc        1 VD1      0.062950
     33 H42         0.1690   -0.9340   -1.1940 hc        1 VD1      0.062950
     34 H101        3.2130   -2.2880    0.8290 hc        1 VD1      0.062950
     35 H102        2.1050   -3.2700    1.8630 hc        1 VD1      0.062950
     36 H6         -0.3010   -3.1720   -1.0360 ha        1 VD1      0.124000
     37 H7          0.6070   -4.6260    1.5130 ha        1 VD1      0.128000
     38 H91        -1.3080   -6.0330   -1.7470 hc        1 VD1      0.047200
     39 H92         0.0460   -4.9190   -2.1950 hc        1 VD1      0.047200
     40 H111        1.5850   -6.7050   -2.5620 hc        1 VD1      0.040700
     41 H112        0.0370   -7.1780   -3.3620 hc        1 VD1      0.040700
     42 H121       -0.5120   -8.7480   -1.5690 hc        1 VD1      0.041700
     43 H122        1.1740   -9.0580   -2.1370 hc        1 VD1      0.041700
     44 H181        2.8470   -7.5750    0.8800 hc        1 VD1      0.038033
     45 H182        2.5060   -6.5730   -0.5870 hc        1 VD1      0.038033
     46 H183        3.1080   -8.2730   -0.7740 hc        1 VD1      0.038033
     47 H14        -0.9980   -7.4560    0.3170 hc        1 VD1      0.054700
     48 H151        1.2010   -6.5540    2.2720 hc        1 VD1      0.044700
     49 H152       -0.5460   -6.8990    2.5790 hc        1 VD1      0.044700
     50 H17        -0.0960   -9.8440    0.5030 hc        1 VD1      0.046700
     51 H161       -0.1240   -9.2010    2.7360 hc        1 VD1      0.042200
     52 H162        1.6300   -8.7670    2.7680 hc        1 VD1      0.042200
     53 H20         2.9370   -9.8630    1.0860 hc        1 VD1      0.049700
     54 H211        0.7750  -12.0420    1.4920 hc        1 VD1      0.034033
     55 H212        2.5300  -12.1240    1.9390 hc        1 VD1      0.034033
     56 H213        1.4310  -10.9900    2.8130 hc        1 VD1      0.034033
     57 H221        1.1790  -11.3600   -0.9680 hc        1 VD1      0.040200
     58 H222        2.5350  -10.2080   -1.2920 hc        1 VD1      0.040200
     59 H231        4.0980  -11.8360   -0.0510 hc        1 VD1      0.032033
     60 H232        3.4160  -12.4180   -1.6270 hc        1 VD1      0.032033
     61 H233        2.7360  -13.0310   -0.0670 hc        1 VD1      0.032033
@<TRIPOS>BOND
     1    1    2 1   
     2    1   26 1   
     3    2    3 1   
     4    2    7 1   
     5    2   27 1   
     6    3    4 2   
     7    3    5 1   
     8    4   28 1   
     9    4   29 1   
    10    5    6 1   
    11    5    9 1   
    12    5   30 1   
    13    6   31 1   
    14    7    8 1   
    15    7   32 1   
    16    7   33 1   
    17    8    9 1   
    18    8   10 2   
    19    9   34 1   
    20    9   35 1   
    21   10   11 1   
    22   10   36 1   
    23   11   12 2   
    24   11   37 1   
    25   12   13 1   
    26   12   18 1   
    27   13   14 1   
    28   13   38 1   
    29   13   39 1   
    30   14   15 1   
    31   14   40 1   
    32   14   41 1   
    33   15   16 1   
    34   15   42 1   
    35   15   43 1   
    36   16   17 1   
    37   16   18 1   
    38   16   20 1   
    39   17   44 1   
    40   17   45 1   
    41   17   46 1   
    42   18   19 1   
    43   18   47 1   
    44   19   21 1   
    45   19   48 1   
    46   19   49 1   
    47   20   21 1   
    48   20   22 1   
    49   20   50 1   
    50   21   51 1   
    51   21   52 1   
    52   22   23 1   
    53   22   24 1   
    54   22   53 1   
    55   23   54 1   
    56   23   55 1   
    57   23   56 1   
    58   24   25 1   
    59   24   57 1   
    60   24   58 1   
    61   25   59 1   
    62   25   60 1   
    63   25   61 1   
@<TRIPOS>SUBSTRUCTURE
     1 VD1         1 TEMP              0 ****  ****    0 ROOT
