@<TRIPOS>MOLECULE
molecule
   76    78     1     0     0
SMALL
bcc


@<TRIPOS>ATOM
      1 O3           0.0000     0.0000     0.0000 oh         1 VD2      -0.603800
      2 C25          1.4290     0.0000     0.0000 c3         1 VD2       0.147800
      3 C27          1.9390     0.0000     1.4420 c3         1 VD2      -0.120100
      4 C26          1.9390     1.2490    -0.7210 c3         1 VD2      -0.120100
      5 C24          1.9380    -1.2480    -0.7230 c3         1 VD2      -0.065400
      6 C23          1.4280    -1.2480    -2.1650 c3         1 VD2      -0.083400
      7 C22          1.9360    -2.4960    -2.8870 c3         1 VD2      -0.081400
      8 C20          1.4270    -2.4960    -4.3290 c3         1 VD2      -0.069700
      9 C21          1.9370    -1.2460    -5.0490 c3         1 VD2      -0.097100
     10 C17          1.9370    -3.7440    -5.0520 c3         1 VD2      -0.053700
     11 C16          1.3720    -5.0230    -4.3800 c3         1 VD2      -0.081400
     12 C13          1.4100    -3.7810    -6.4780 c3         1 VD2      -0.060000
     13 C18          0.0020    -3.1860    -6.5100 c3         1 VD2      -0.093100
     14 C14          1.2900    -5.3030    -6.7710 c3         1 VD2      -0.035500
     15 C15          0.6170    -5.8040    -5.4920 c3         1 VD2      -0.078400
     16 C12          2.2370    -3.1660    -7.5770 c3         1 VD2      -0.064400
     17 C11          1.4340    -3.2510    -8.8840 c3         1 VD2      -0.078400
     18 C9           1.0840    -4.6960    -9.2410 c3         1 VD2      -0.043200
     19 C8           0.4960    -5.4190    -8.0390 c2         1 VD2      -0.097400
     20 C7          -0.6410    -6.1040    -8.1060 ce         1 VD2      -0.148000
     21 C6          -1.3770    -6.1830    -9.3780 ce         1 VD2      -0.135000
     22 C5          -2.4610    -6.9470    -9.4720 c2         1 VD2      -0.108400
     23 C10         -3.0260    -7.6430    -8.2540 c3         1 VD2      -0.058700
     24 C4          -3.1540    -7.1480   -10.8000 c3         1 VD2      -0.058700
     25 C3          -4.6440    -6.8470   -10.6220 c3         1 VD2       0.155100
     26 O2          -5.3410    -7.1500   -11.8320 oh         1 VD2      -0.605800
     27 C2          -5.2030    -7.7000    -9.4830 c3         1 VD2      -0.076700
     28 C28         -6.7100    -7.4670    -9.3630 c3         1 VD2      -0.083100
     29 C1          -4.5250    -7.3190    -8.1670 c3         1 VD2       0.155100
     30 O1          -4.7000    -5.9200    -7.9290 oh         1 VD2      -0.605800
     31 HO3         -0.3140     0.5660     0.6850 ho         1 VD2       0.401000
     32 H271         1.5910     0.8920     1.9480 hc         1 VD2       0.041533
     33 H272         3.0230    -0.0160     1.4420 hc         1 VD2       0.041533
     34 H273         1.5660    -0.8760     1.9570 hc         1 VD2       0.041533
     35 H261         1.2910     1.4720    -1.5600 hc         1 VD2       0.041533
     36 H262         2.9460     1.0740    -1.0790 hc         1 VD2       0.041533
     37 H263         1.9410     2.0870    -0.0340 hc         1 VD2       0.041533
     38 H241         3.0210    -1.2480    -0.7240 hc         1 VD2       0.047700
     39 H242         1.5770    -2.1330    -0.2130 hc         1 VD2       0.047700
     40 H231         1.7890    -0.3640    -2.6760 hc         1 VD2       0.052700
     41 H232         0.3450    -1.2480    -2.1650 hc         1 VD2       0.052700
     42 H221         1.5750    -3.3810    -2.3770 hc         1 VD2       0.040200
     43 H222         3.0200    -2.4970    -2.8870 hc         1 VD2       0.040200
     44 H20          0.3440    -2.4960    -4.3290 hc         1 VD2       0.060700
     45 H211         2.0120    -0.4280    -4.3430 hc         1 VD2       0.036033
     46 H212         2.9130    -1.4470    -5.4750 hc         1 VD2       0.036033
     47 H213         1.2470    -0.9780    -5.8400 hc         1 VD2       0.036033
     48 H17          3.0200    -3.7690    -5.0520 hc         1 VD2       0.052700
     49 H161         2.1840    -5.6250    -3.9900 hc         1 VD2       0.044200
     50 H162         0.6870    -4.7530    -3.5860 hc         1 VD2       0.044200
     51 H181         0.0680    -2.1070    -6.5840 hc         1 VD2       0.041033
     52 H182        -0.5350    -3.5740    -7.3670 hc         1 VD2       0.041033
     53 H183        -0.5240    -3.4540    -5.6020 hc         1 VD2       0.041033
     54 H14          2.2710    -5.7470    -6.8890 hc         1 VD2       0.064700
     55 H151        -0.4360    -5.5500    -5.4890 hc         1 VD2       0.047200
     56 H152         0.7630    -6.8710    -5.3760 hc         1 VD2       0.047200
     57 H121         2.4410    -2.1280    -7.3420 hc         1 VD2       0.044200
     58 H122         3.1660    -3.7120    -7.6830 hc         1 VD2       0.044200
     59 H111         2.0220    -2.8230    -9.6870 hc         1 VD2       0.042700
     60 H112         0.5170    -2.6860    -8.7720 hc         1 VD2       0.042700
     61 H91          1.9830    -5.2100    -9.5600 hc         1 VD2       0.049200
     62 H92          0.3600    -4.6980   -10.0470 hc         1 VD2       0.049200
     63 H7          -0.9940    -6.6530    -7.2420 ha         1 VD2       0.133000
     64 H6          -0.9850    -5.6910   -10.2600 ha         1 VD2       0.130000
     65 H101        -2.5230    -7.2850    -7.3640 hc         1 VD2       0.055950
     66 H102        -2.8900    -8.7140    -8.3510 hc         1 VD2       0.055950
     67 H41         -3.0280    -8.1740   -11.1240 hc         1 VD2       0.055950
     68 H42         -2.7330    -6.4740   -11.5360 hc         1 VD2       0.055950
     69 H3          -4.7720    -5.7990   -10.3800 h1         1 VD2       0.044700
     70 HO2         -5.4500    -6.3620   -12.3380 ho         1 VD2       0.400000
     71 H2          -5.0130    -8.7460    -9.6930 hc         1 VD2       0.064700
     72 H281        -7.0530    -7.8120    -8.3950 hc         1 VD2       0.037033
     73 H282        -7.2240    -8.0140   -10.1440 hc         1 VD2       0.037033
     74 H283        -6.9210    -6.4090    -9.4650 hc         1 VD2       0.037033
     75 H1          -4.9690    -7.8860    -7.3570 h1         1 VD2       0.044700
     76 HO1         -5.0880    -5.7920    -7.0780 ho         1 VD2       0.400000
@<TRIPOS>BOND
     1     1     2 1
     2     1    31 1
     3     2     3 1
     4     2     4 1
     5     2     5 1
     6     3    32 1
     7     3    33 1
     8     3    34 1
     9     4    35 1
    10     4    36 1
    11     4    37 1
    12     5     6 1
    13     5    38 1
    14     5    39 1
    15     6     7 1
    16     6    40 1
    17     6    41 1
    18     7     8 1
    19     7    42 1
    20     7    43 1
    21     8     9 1
    22     8    10 1
    23     8    44 1
    24     9    45 1
    25     9    46 1
    26     9    47 1
    27    10    11 1
    28    10    12 1
    29    10    48 1
    30    11    15 1
    31    11    49 1
    32    11    50 1
    33    12    13 1
    34    12    14 1
    35    12    16 1
    36    13    51 1
    37    13    52 1
    38    13    53 1
    39    14    15 1
    40    14    19 1
    41    14    54 1
    42    15    55 1
    43    15    56 1
    44    16    17 1
    45    16    57 1
    46    16    58 1
    47    17    18 1
    48    17    59 1
    49    17    60 1
    50    18    19 1
    51    18    61 1
    52    18    62 1
    53    19    20 2
    54    20    21 1
    55    20    63 1
    56    21    22 2
    57    21    64 1
    58    22    23 1
    59    22    24 1
    60    23    29 1
    61    23    65 1
    62    23    66 1
    63    24    25 1
    64    24    67 1
    65    24    68 1
    66    25    26 1
    67    25    27 1
    68    25    69 1
    69    26    70 1
    70    27    28 1
    71    27    29 1
    72    27    71 1
    73    28    72 1
    74    28    73 1
    75    28    74 1
    76    29    30 1
    77    29    75 1
    78    30    76 1
@<TRIPOS>SUBSTRUCTURE
     1 VD2         1 TEMP              0 ****  ****    0 ROOT
