@<TRIPOS>MOLECULE
VD2
   76    78     1     0     0
SMALL
bcc


@<TRIPOS>ATOM
      1 O3          0.3770   -0.2320    0.3440 oh        1 VD2     -0.597800
      2 C25         1.7940   -0.0470    0.3010 c3        1 VD2      0.147800
      3 C27         2.3780   -0.2390    1.6980 c3        1 VD2     -0.123100
      4 C26         2.1200    1.3520   -0.2070 c3        1 VD2     -0.123100
      5 C24         2.3360   -1.1320   -0.6340 c3        1 VD2     -0.064400
      6 C23         1.8200   -1.0020   -2.0500 c3        1 VD2     -0.079400
      7 C22         2.2270   -2.1990   -2.8860 c3        1 VD2     -0.079400
      8 C20         1.7700   -2.0610   -4.3370 c3        1 VD2     -0.055700
      9 C21         2.7460   -1.1760   -5.0880 c3        1 VD2     -0.091100
     10 C17         1.6420   -3.4370   -4.9840 c3        1 VD2     -0.053700
     11 C16         0.6280   -4.3300   -4.2400 c3        1 VD2     -0.079400
     12 C13         1.1650   -3.4720   -6.4540 c3        1 VD2     -0.040000
     13 C18         0.0330   -2.4840   -6.6780 c3        1 VD2     -0.083100
     14 C14         0.6610   -4.9380   -6.5740 c3        1 VD2     -0.038500
     15 C15        -0.1170   -5.1630   -5.2860 c3        1 VD2     -0.074400
     16 C12         2.2520   -3.2940   -7.5040 c3        1 VD2     -0.067400
     17 C11         1.7100   -3.5790   -8.8940 c3        1 VD2     -0.073400
     18 C9          0.9840   -4.9070   -9.0210 c3        1 VD2     -0.045200
     19 C8          0.0350   -5.1830   -7.8990 c2        1 VD2     -0.073400
     20 C7         -1.2080   -5.6700   -8.0530 ce        1 VD2     -0.155000
     21 C6         -1.8560   -5.9180   -9.3220 ce        1 VD2     -0.119000
     22 C5         -2.7390   -6.9030   -9.5670 c2        1 VD2     -0.122400
     23 C10        -3.1370   -7.9430   -8.5810 c3        1 VD2     -0.079700
     24 C4         -3.3590   -7.0560  -10.9120 c3        1 VD2     -0.079700
     25 C3         -4.8790   -7.1900  -10.8210 c3        1 VD2      0.145100
     26 O2         -5.4150   -7.5260  -12.0960 oh        1 VD2     -0.594800
     27 C2         -5.2860   -8.3130   -9.8610 c3        1 VD2     -0.090700
     28 C28        -6.7910   -8.4060   -9.7500 c3        1 VD2     -0.087100
     29 C1         -4.6540   -8.0990   -8.4810 c3        1 VD2      0.145100
     30 O1         -5.2350   -7.0120   -7.7820 oh        1 VD2     -0.594800
     31 HO3         0.0270    0.4460    0.9320 ho        1 VD2      0.397000
     32 H271        3.4870   -0.1370    1.6660 hc        1 VD2      0.042367
     33 H272        2.1150   -1.2520    2.0850 hc        1 VD2      0.042367
     34 H273        1.9660    0.5260    2.3990 hc        1 VD2      0.042367
     35 H261        3.2090    1.4330   -0.4310 hc        1 VD2      0.042367
     36 H262        1.8530    2.1160    0.5610 hc        1 VD2      0.042367
     37 H263        1.5390    1.5660   -1.1360 hc        1 VD2      0.042367
     38 H241        3.4550   -1.0740   -0.6250 hc        1 VD2      0.047200
     39 H242        2.0370   -2.1310   -0.2190 hc        1 VD2      0.047200
     40 H231        0.7010   -0.9150   -2.0270 hc        1 VD2      0.048700
     41 H232        2.2190   -0.0600   -2.5120 hc        1 VD2      0.048700
     42 H221        3.3420   -2.3200   -2.8580 hc        1 VD2      0.040700
     43 H222        1.7850   -3.1220   -2.4260 hc        1 VD2      0.040700
     44 H20         0.7570   -1.5670   -4.3450 hc        1 VD2      0.053700
     45 H211        2.2910   -0.7980   -6.0360 hc        1 VD2      0.033367
     46 H212        3.6770   -1.7390   -5.3400 hc        1 VD2      0.033367
     47 H213        3.0280   -0.2910   -4.4670 hc        1 VD2      0.033367
     48 H17         2.6540   -3.9280   -4.9420 hc        1 VD2      0.045700
     49 H161       -0.0960   -3.7050   -3.6600 hc        1 VD2      0.044700
     50 H162        1.1610   -4.9960   -3.5180 hc        1 VD2      0.044700
     51 H181       -0.6970   -2.5330   -5.8330 hc        1 VD2      0.037700
     52 H182       -0.5130   -2.7210   -7.6240 hc        1 VD2      0.037700
     53 H183        0.4300   -1.4440   -6.7490 hc        1 VD2      0.037700
     54 H14         1.5710   -5.6110   -6.5290 hc        1 VD2      0.055700
     55 H151       -0.1420   -6.2440   -5.0080 hc        1 VD2      0.045700
     56 H152       -1.1740   -4.8090   -5.3860 hc        1 VD2      0.045700
     57 H121        2.6550   -2.2490   -7.4760 hc        1 VD2      0.042700
     58 H122        3.1040   -3.9890   -7.2800 hc        1 VD2      0.042700
     59 H111        2.5620   -3.5680   -9.6250 hc        1 VD2      0.040200
     60 H112        1.0120   -2.7510   -9.1890 hc        1 VD2      0.040200
     61 H91         0.4520   -4.9320  -10.0080 hc        1 VD2      0.047700
     62 H92         1.7410   -5.7400   -9.0350 hc        1 VD2      0.047700
     63 H7         -1.8130   -5.8950   -7.1550 ha        1 VD2      0.132000
     64 H6         -1.5980   -5.2140  -10.1360 ha        1 VD2      0.122000
     65 H101       -2.7370   -7.7070   -7.5600 hc        1 VD2      0.058700
     66 H102       -2.6960   -8.9260   -8.9000 hc        1 VD2      0.058700
     67 H41        -2.9450   -7.9790  -11.4040 hc        1 VD2      0.058700
     68 H42        -3.1080   -6.1850  -11.5740 hc        1 VD2      0.058700
     69 H3         -5.3290   -6.2160  -10.4760 h1        1 VD2      0.055200
     70 HO2        -5.1490   -6.8230  -12.7000 ho        1 VD2      0.399500
     71 H2         -4.8880   -9.2800  -10.2770 hc        1 VD2      0.066700
     72 H281       -7.0770   -9.3040   -9.1520 hc        1 VD2      0.043700
     73 H282       -7.2450   -8.4870  -10.7680 hc        1 VD2      0.043700
     74 H283       -7.1990   -7.4990   -9.2420 hc        1 VD2      0.043700
     75 H1         -4.8980   -8.9880   -7.8290 h1        1 VD2      0.055200
     76 HO1        -5.0110   -6.2070   -8.2650 ho        1 VD2      0.399500
@<TRIPOS>BOND
     1    1    2 1   
     2    1   31 1   
     3    2    3 1   
     4    2    4 1   
     5    2    5 1   
     6    3   32 1   
     7    3   33 1   
     8    3   34 1   
     9    4   35 1   
    10    4   36 1   
    11    4   37 1   
    12    5    6 1   
    13    5   38 1   
    14    5   39 1   
    15    6    7 1   
    16    6   40 1   
    17    6   41 1   
    18    7    8 1   
    19    7   42 1   
    20    7   43 1   
    21    8    9 1   
    22    8   10 1   
    23    8   44 1   
    24    9   45 1   
    25    9   46 1   
    26    9   47 1   
    27   10   11 1   
    28   10   12 1   
    29   10   48 1   
    30   11   15 1   
    31   11   49 1   
    32   11   50 1   
    33   12   13 1   
    34   12   14 1   
    35   12   16 1   
    36   13   51 1   
    37   13   52 1   
    38   13   53 1   
    39   14   15 1   
    40   14   19 1   
    41   14   54 1   
    42   15   55 1   
    43   15   56 1   
    44   16   17 1   
    45   16   57 1   
    46   16   58 1   
    47   17   18 1   
    48   17   59 1   
    49   17   60 1   
    50   18   19 1   
    51   18   61 1   
    52   18   62 1   
    53   19   20 2   
    54   20   21 1   
    55   20   63 1   
    56   21   22 2   
    57   21   64 1   
    58   22   23 1   
    59   22   24 1   
    60   23   29 1   
    61   23   65 1   
    62   23   66 1   
    63   24   25 1   
    64   24   67 1   
    65   24   68 1   
    66   25   26 1   
    67   25   27 1   
    68   25   69 1   
    69   26   70 1   
    70   27   28 1   
    71   27   29 1   
    72   27   71 1   
    73   28   72 1   
    74   28   73 1   
    75   28   74 1   
    76   29   30 1   
    77   29   75 1   
    78   30   76 1   
@<TRIPOS>SUBSTRUCTURE
     1 VD2         1 TEMP              0 ****  ****    0 ROOT
