@<TRIPOS>MOLECULE
VD3
   72    74     1     0     0
SMALL
bcc


@<TRIPOS>ATOM
      1 O           0.2640   -0.4640   -0.9050 oh        1 VD3     -0.600800
      2 C1          3.7010    0.8840   -1.2670 c3        1 VD3     -0.041200
      3 C2          2.2180    0.7150   -1.5200 c3        1 VD3     -0.072400
      4 C3          1.6580   -0.3850   -0.6270 c3        1 VD3      0.145100
      5 C4          1.8960   -0.0670    0.8480 c3        1 VD3     -0.075200
      6 C5          3.3280    0.2240    1.1310 ce        1 VD3     -0.072200
      7 C7          3.9860   -0.2650    2.2030 cf        1 VD3     -0.121000
      8 C8          3.4010   -1.1000    3.2290 cf        1 VD3     -0.152000
      9 C9          4.0540   -2.0430    3.9290 c2        1 VD3     -0.074400
     10 C10         5.4730   -2.4480    3.6900 c3        1 VD3     -0.045200
     11 C6          4.0060    1.1080    0.1770 ce        1 VD3     -0.076200
     12 C11         6.2860   -2.6040    4.9640 c3        1 VD3     -0.073400
     13 C12         5.5740   -3.3630    6.0700 c3        1 VD3     -0.067400
     14 C13         4.1920   -2.7800    6.3230 c3        1 VD3     -0.040000
     15 C14         3.4120   -2.8740    4.9810 c3        1 VD3     -0.038500
     16 C15         1.9630   -2.6470    5.3840 c3        1 VD3     -0.073400
     17 C16         1.8520   -3.2730    6.7750 c3        1 VD3     -0.078400
     18 C17         3.2790   -3.6030    7.2610 c3        1 VD3     -0.053700
     19 C18         4.2940   -1.3400    6.7950 c3        1 VD3     -0.083100
     20 C19         4.8640    2.0590    0.5700 c2        1 VD3     -0.216000
     21 C20         3.4410   -3.3640    8.7580 c3        1 VD3     -0.055700
     22 C21         4.8530   -3.6610    9.2250 c3        1 VD3     -0.091100
     23 C22         2.4570   -4.2330    9.5410 c3        1 VD3     -0.080400
     24 C23         2.1610   -3.6610   10.9120 c3        1 VD3     -0.079400
     25 C24         1.2090   -4.5550   11.6780 c3        1 VD3     -0.076400
     26 C25         0.8600   -3.9900   13.0480 c3        1 VD3     -0.067700
     27 C26        -0.3870   -4.6630   13.5870 c3        1 VD3     -0.089600
     28 C27         2.0050   -4.1570   14.0240 c3        1 VD3     -0.089600
     29 HO         -0.1010   -1.1270   -0.3080 ho        1 VD3      0.399000
     30 H11         4.2460   -0.0400   -1.6050 hc        1 VD3      0.050200
     31 H12         4.0830    1.7410   -1.8830 hc        1 VD3      0.050200
     32 H21         1.6730    1.6720   -1.3130 hc        1 VD3      0.057200
     33 H22         2.0380    0.4490   -2.5930 hc        1 VD3      0.057200
     34 H3          2.1410   -1.3710   -0.8830 h1        1 VD3      0.036700
     35 H41         1.5330   -0.9310    1.4650 hc        1 VD3      0.056200
     36 H42         1.2800    0.8310    1.1290 hc        1 VD3      0.056200
     37 H7          5.0530   -0.0080    2.3380 ha        1 VD3      0.127000
     38 H8          2.3330   -0.9110    3.4460 ha        1 VD3      0.126000
     39 H101        5.9920   -1.7120    3.0220 hc        1 VD3      0.049200
     40 H102        5.4560   -3.4320    3.1430 hc        1 VD3      0.049200
     41 H111        6.5680   -1.5860    5.3440 hc        1 VD3      0.040700
     42 H112        7.2410   -3.1380    4.7140 hc        1 VD3      0.040700
     43 H121        6.1940   -3.3170    7.0020 hc        1 VD3      0.042700
     44 H122        5.4760   -4.4440    5.7850 hc        1 VD3      0.042700
     45 H14         3.4890   -3.9460    4.6220 hc        1 VD3      0.055700
     46 H151        1.2590   -3.1260    4.6610 hc        1 VD3      0.043700
     47 H152        1.7230   -1.5550    5.4270 hc        1 VD3      0.043700
     48 H161        1.2350   -4.2050    6.7370 hc        1 VD3      0.043200
     49 H162        1.3530   -2.5600    7.4780 hc        1 VD3      0.043200
     50 H17         3.4830   -4.6920    7.0650 hc        1 VD3      0.046700
     51 H181        3.2890   -0.9590    7.1020 hc        1 VD3      0.037367
     52 H182        4.6790   -0.6840    5.9770 hc        1 VD3      0.037367
     53 H183        4.9870   -1.2620    7.6680 hc        1 VD3      0.037367
     54 H191        5.1070    2.2320    1.6270 ha        1 VD3      0.115000
     55 H192        5.3680    2.7240   -0.1430 ha        1 VD3      0.115000
     56 H20         3.2110   -2.2830    8.9750 hc        1 VD3      0.051700
     57 H211        5.2180   -4.6230    8.7920 hc        1 VD3      0.034367
     58 H212        4.8870   -3.7410   10.3390 hc        1 VD3      0.034367
     59 H213        5.5510   -2.8450    8.9190 hc        1 VD3      0.034367
     60 H221        2.8790   -5.2670    9.6460 hc        1 VD3      0.041200
     61 H222        1.4920   -4.3300    8.9780 hc        1 VD3      0.041200
     62 H231        3.1140   -3.5400   11.4900 hc        1 VD3      0.040200
     63 H232        1.7100   -2.6390   10.8020 hc        1 VD3      0.040200
     64 H241        0.2660   -4.6810   11.0820 hc        1 VD3      0.039700
     65 H242        1.6630   -5.5730   11.8000 hc        1 VD3      0.039700
     66 H25         0.6470   -2.8890   12.9350 hc        1 VD3      0.045700
     67 H261       -0.6390   -4.2600   14.5970 hc        1 VD3      0.033367
     68 H262       -0.2290   -5.7650   13.6750 hc        1 VD3      0.033367
     69 H263       -1.2540   -4.4830   12.9060 hc        1 VD3      0.033367
     70 H271        2.2490   -5.2380   14.1620 hc        1 VD3      0.033367
     71 H272        1.7310   -3.7280   15.0180 hc        1 VD3      0.033367
     72 H273        2.9180   -3.6330   13.6530 hc        1 VD3      0.033367
@<TRIPOS>BOND
     1    1    4 1   
     2    1   29 1   
     3    2    3 1   
     4    2   11 1   
     5    2   30 1   
     6    2   31 1   
     7    3    4 1   
     8    3   32 1   
     9    3   33 1   
    10    4    5 1   
    11    4   34 1   
    12    5    6 1   
    13    5   35 1   
    14    5   36 1   
    15    6    7 2   
    16    6   11 1   
    17    7    8 1   
    18    7   37 1   
    19    8    9 2   
    20    8   38 1   
    21    9   10 1   
    22    9   15 1   
    23   10   12 1   
    24   10   39 1   
    25   10   40 1   
    26   11   20 2   
    27   12   13 1   
    28   12   41 1   
    29   12   42 1   
    30   13   14 1   
    31   13   43 1   
    32   13   44 1   
    33   14   15 1   
    34   14   18 1   
    35   14   19 1   
    36   15   16 1   
    37   15   45 1   
    38   16   17 1   
    39   16   46 1   
    40   16   47 1   
    41   17   18 1   
    42   17   48 1   
    43   17   49 1   
    44   18   21 1   
    45   18   50 1   
    46   19   51 1   
    47   19   52 1   
    48   19   53 1   
    49   20   54 1   
    50   20   55 1   
    51   21   22 1   
    52   21   23 1   
    53   21   56 1   
    54   22   57 1   
    55   22   58 1   
    56   22   59 1   
    57   23   24 1   
    58   23   60 1   
    59   23   61 1   
    60   24   25 1   
    61   24   62 1   
    62   24   63 1   
    63   25   26 1   
    64   25   64 1   
    65   25   65 1   
    66   26   27 1   
    67   26   28 1   
    68   26   66 1   
    69   27   67 1   
    70   27   68 1   
    71   27   69 1   
    72   28   70 1   
    73   28   71 1   
    74   28   72 1   
@<TRIPOS>SUBSTRUCTURE
     1 VD3         1 TEMP              0 ****  ****    0 ROOT
