@<TRIPOS>MOLECULE
molecule
   72    74     1     0     0
SMALL
bcc


@<TRIPOS>ATOM
      1 O            0.0000     0.0000     0.0000 oh         1 VD3      -0.607800
      2 C1           3.4590     1.1780    -0.8730 c3         1 VD3      -0.037200
      3 C2           1.9350     1.2450    -0.7290 c3         1 VD3      -0.088400
      4 C3           1.4280     0.0000     0.0000 c3         1 VD3       0.149100
      5 C4           1.9380     0.0000     1.4440 c3         1 VD3      -0.048200
      6 C5           3.4530     0.0580     1.4160 ce         1 VD3      -0.088200
      7 C7           4.2050    -0.7600     2.1820 cf         1 VD3      -0.125000
      8 C8           3.5610    -1.7330     3.0670 cf         1 VD3      -0.158000
      9 C9           4.3040    -2.5400     3.8230 c2         1 VD3      -0.088400
     10 C10          5.8270    -2.4980     3.8100 c3         1 VD3      -0.045200
     11 C6           4.0640     1.0560     0.5150 ce         1 VD3      -0.085200
     12 C11          6.3780    -2.4110     5.2310 c3         1 VD3      -0.078400
     13 C12          5.7330    -3.4550     6.1580 c3         1 VD3      -0.064400
     14 C13          4.2460    -3.2190     6.1680 c3         1 VD3      -0.060000
     15 C14          3.7020    -3.5550     4.7490 c3         1 VD3      -0.037500
     16 C15          2.1910    -3.4650     4.9770 c3         1 VD3      -0.078400
     17 C16          2.0090    -4.1740     6.3490 c3         1 VD3      -0.081400
     18 C17          3.3710    -4.0620     7.0830 c3         1 VD3      -0.052700
     19 C18          3.9710    -1.7370     6.4350 c3         1 VD3      -0.093100
     20 C19          5.0990     1.8050     0.8950 c2         1 VD3      -0.214000
     21 C20          3.1900    -3.3670     8.4340 c3         1 VD3      -0.070700
     22 C21          4.5530    -3.2030     9.1090 c3         1 VD3      -0.095100
     23 C22          2.2790    -4.2130     9.3250 c3         1 VD3      -0.080400
     24 C23          1.9980    -3.4620    10.6270 c3         1 VD3      -0.085400
     25 C24          1.0860    -4.3080    11.5180 c3         1 VD3      -0.076400
     26 C25          0.8050    -3.5570    12.8210 c3         1 VD3      -0.077700
     27 C26         -0.2040    -4.3450    13.6570 c3         1 VD3      -0.087600
     28 C27          2.1070    -3.3980    13.6090 c3         1 VD3      -0.087600
     29 HO          -0.3140    -0.7750    -0.4350 ho         1 VD3       0.400000
     30 H11          3.7310     0.3120    -1.4660 hc         1 VD3       0.050200
     31 H12          3.8200     2.0810    -1.3500 hc         1 VD3       0.050200
     32 H21          1.4840     1.2940    -1.7120 hc         1 VD3       0.053200
     33 H22          1.6680     2.1280    -0.1600 hc         1 VD3       0.053200
     34 H3           1.7930    -0.8850    -0.5080 h1         1 VD3       0.033700
     35 H41          1.5510     0.8660     1.9660 hc         1 VD3       0.061700
     36 H42          1.6180    -0.9070     1.9430 hc         1 VD3       0.061700
     37 H7           5.2860    -0.6970     2.1420 ha         1 VD3       0.135000
     38 H8           2.4800    -1.7960     3.1080 ha         1 VD3       0.137000
     39 H101         6.2020    -3.3980     3.3380 hc         1 VD3       0.050200
     40 H102         6.1530    -1.6320     3.2480 hc         1 VD3       0.050200
     41 H111         7.4480    -2.5780     5.2040 hc         1 VD3       0.043700
     42 H112         6.1800    -1.4210     5.6240 hc         1 VD3       0.043700
     43 H121         5.9410    -4.4510     5.7850 hc         1 VD3       0.044700
     44 H122         6.1260    -3.3450     7.1610 hc         1 VD3       0.044700
     45 H14          3.9880    -4.5590     4.4600 hc         1 VD3       0.066700
     46 H151         1.8740    -2.4310     5.0360 hc         1 VD3       0.047700
     47 H152         1.6550    -3.9960     4.1990 hc         1 VD3       0.047700
     48 H161         1.7540    -5.2160     6.1970 hc         1 VD3       0.045200
     49 H162         1.2370    -3.6760     6.9230 hc         1 VD3       0.045200
     50 H17          3.8060    -5.0450     7.2150 hc         1 VD3       0.053700
     51 H181         4.2050    -1.1610     5.5480 hc         1 VD3       0.040033
     52 H182         4.5880    -1.3980     7.2590 hc         1 VD3       0.040033
     53 H183         2.9260    -1.6030     6.6870 hc         1 VD3       0.040033
     54 H191         5.5270     2.5260     0.2080 ha         1 VD3       0.117000
     55 H192         5.5100     1.6970     1.8910 ha         1 VD3       0.117000
     56 H20          2.7430    -2.3920     8.2830 hc         1 VD3       0.058700
     57 H211         5.2250    -3.9770     8.7590 hc         1 VD3       0.035700
     58 H212         4.9630    -2.2310     8.8630 hc         1 VD3       0.035700
     59 H213         4.4370    -3.2840    10.1830 hc         1 VD3       0.035700
     60 H221         2.7660    -5.1550     9.5490 hc         1 VD3       0.042200
     61 H222         1.3460    -4.4040     8.8090 hc         1 VD3       0.042200
     62 H231         2.9310    -3.2710    11.1430 hc         1 VD3       0.043700
     63 H232         1.5100    -2.5200    10.4030 hc         1 VD3       0.043700
     64 H241         1.5740    -5.2490    11.7420 hc         1 VD3       0.041200
     65 H242         0.1530    -4.4980    11.0020 hc         1 VD3       0.041200
     66 H25          0.3990    -2.5780    12.5940 hc         1 VD3       0.048700
     67 H261        -1.1190    -4.4740    13.0910 hc         1 VD3       0.033200
     68 H262         0.2090    -5.3160    13.9010 hc         1 VD3       0.033200
     69 H263        -0.4180    -3.8040    14.5710 hc         1 VD3       0.033200
     70 H271         1.8800    -3.2910    14.6630 hc         1 VD3       0.033200
     71 H272         2.6340    -2.5170    13.2620 hc         1 VD3       0.033200
     72 H273         2.7280    -4.2720    13.4600 hc         1 VD3       0.033200
@<TRIPOS>BOND
     1     1     4 1
     2     1    29 1
     3     2     3 1
     4     2    11 1
     5     2    30 1
     6     2    31 1
     7     3     4 1
     8     3    32 1
     9     3    33 1
    10     4     5 1
    11     4    34 1
    12     5     6 1
    13     5    35 1
    14     5    36 1
    15     6     7 2
    16     6    11 1
    17     7     8 1
    18     7    37 1
    19     8     9 2
    20     8    38 1
    21     9    10 1
    22     9    15 1
    23    10    12 1
    24    10    39 1
    25    10    40 1
    26    11    20 2
    27    12    13 1
    28    12    41 1
    29    12    42 1
    30    13    14 1
    31    13    43 1
    32    13    44 1
    33    14    15 1
    34    14    18 1
    35    14    19 1
    36    15    16 1
    37    15    45 1
    38    16    17 1
    39    16    46 1
    40    16    47 1
    41    17    18 1
    42    17    48 1
    43    17    49 1
    44    18    21 1
    45    18    50 1
    46    19    51 1
    47    19    52 1
    48    19    53 1
    49    20    54 1
    50    20    55 1
    51    21    22 1
    52    21    23 1
    53    21    56 1
    54    22    57 1
    55    22    58 1
    56    22    59 1
    57    23    24 1
    58    23    60 1
    59    23    61 1
    60    24    25 1
    61    24    62 1
    62    24    63 1
    63    25    26 1
    64    25    64 1
    65    25    65 1
    66    26    27 1
    67    26    28 1
    68    26    66 1
    69    27    67 1
    70    27    68 1
    71    27    69 1
    72    28    70 1
    73    28    71 1
    74    28    72 1
@<TRIPOS>SUBSTRUCTURE
     1 VD3         1 TEMP              0 ****  ****    0 ROOT
