@<TRIPOS>MOLECULE
VD4
   72    74     1     0     0
SMALL
bcc


@<TRIPOS>ATOM
      1 O3         -0.3720    1.0710   -0.0600 oh        1 VD4     -0.597800
      2 C25         0.9440    0.5230    0.0480 c3        1 VD4      0.147800
      3 C26         1.4170    0.6100    1.4970 c3        1 VD4     -0.123600
      4 C27         0.9420   -0.9310   -0.4080 c3        1 VD4     -0.123600
      5 C24         1.8410    1.3960   -0.8360 c3        1 VD4     -0.065400
      6 C23         1.4410    1.3650   -2.2950 c3        1 VD4     -0.077400
      7 C22         2.2660    2.3550   -3.0930 c3        1 VD4     -0.042200
      8 C20         1.9250    2.4300   -4.5420 c2        1 VD4     -0.108400
      9 C21         1.1240    1.3030   -5.0840 c3        1 VD4     -0.057900
     10 C17         2.3220    3.4500   -5.3230 c2        1 VD4     -0.119400
     11 C13         3.1340    4.6720   -4.9520 c3        1 VD4     -0.001800
     12 C18         2.1750    5.7200   -4.4000 c3        1 VD4     -0.082100
     13 C12         4.3220    4.5000   -4.0160 c3        1 VD4     -0.065400
     14 C11         5.1250    5.7870   -3.9150 c3        1 VD4     -0.073400
     15 C9          5.5040    6.4150   -5.2450 c3        1 VD4     -0.044200
     16 C16         1.9410    3.5690   -6.7770 c3        1 VD4     -0.044200
     17 C15         2.5940    4.8470   -7.3130 c3        1 VD4     -0.073400
     18 C14         3.7260    5.1010   -6.3290 c3        1 VD4     -0.035500
     19 C8          4.3880    6.4270   -6.2400 c2        1 VD4     -0.078400
     20 C7          4.0540    7.4770   -7.0080 ce        1 VD4     -0.144000
     21 C6          4.7180    8.7610   -6.9990 ce        1 VD4     -0.124000
     22 C5          4.1570    9.9320   -7.3580 c2        1 VD4     -0.104400
     23 C10         4.9760   11.1760   -7.3840 c3        1 VD4     -0.035200
     24 C1          4.2460   12.3260   -6.6870 c3        1 VD4      0.183300
     25 O1          5.0940   13.4620   -6.7930 oh        1 VD4     -0.593800
     26 C4          2.7420   10.0660   -7.7960 c3        1 VD4     -0.035200
     27 C3          2.0270   11.3060   -7.2540 c3        1 VD4      0.183300
     28 O2          1.6330   11.0080   -5.9180 oh        1 VD4     -0.593800
     29 C2          2.8990   12.5300   -7.3140 c2        1 VD4     -0.193400
     30 C28         2.5010   13.6630   -7.8920 c2        1 VD4     -0.198000
     31 HO3        -0.9430    0.5310    0.4980 ho        1 VD4      0.397000
     32 H261        1.3900    1.6710    1.8440 hc        1 VD4      0.042367
     33 H262        2.4600    0.2250    1.5820 hc        1 VD4      0.042367
     34 H263        0.7540    0.0030    2.1580 hc        1 VD4      0.042367
     35 H271        0.4150   -1.5700    0.3400 hc        1 VD4      0.042367
     36 H272        1.9880   -1.2980   -0.5220 hc        1 VD4      0.042367
     37 H273        0.4130   -1.0230   -1.3870 hc        1 VD4      0.042367
     38 H241        1.7860    2.4500   -0.4560 hc        1 VD4      0.047200
     39 H242        2.8980    1.0400   -0.7190 hc        1 VD4      0.047200
     40 H231        1.5860    0.3290   -2.7000 hc        1 VD4      0.050700
     41 H232        0.3500    1.6120   -2.3800 hc        1 VD4      0.050700
     42 H221        2.1300    3.3740   -2.6350 hc        1 VD4      0.047200
     43 H222        3.3540    2.0850   -2.9950 hc        1 VD4      0.047200
     44 H211        0.9530    1.3890   -6.1840 hc        1 VD4      0.040700
     45 H212        1.6520    0.3350   -4.8930 hc        1 VD4      0.040700
     46 H213        0.1250    1.2640   -4.5820 hc        1 VD4      0.040700
     47 H181        2.6550    6.7280   -4.3920 hc        1 VD4      0.040033
     48 H182        1.8750    5.4540   -3.3580 hc        1 VD4      0.040033
     49 H183        1.2550    5.7760   -5.0320 hc        1 VD4      0.040033
     50 H121        4.9730    3.6670   -4.3880 hc        1 VD4      0.043200
     51 H122        3.9760    4.2250   -2.9860 hc        1 VD4      0.043200
     52 H111        4.5340    6.5330   -3.3180 hc        1 VD4      0.040700
     53 H112        6.0660    5.5770   -3.3410 hc        1 VD4      0.040700
     54 H91         5.8730    7.4560   -5.0490 hc        1 VD4      0.047200
     55 H92         6.3570    5.8370   -5.6960 hc        1 VD4      0.047200
     56 H161        0.8290    3.6140   -6.8880 hc        1 VD4      0.049200
     57 H162        2.3110    2.6790   -7.3480 hc        1 VD4      0.049200
     58 H151        1.8610    5.6910   -7.3140 hc        1 VD4      0.045700
     59 H152        2.9720    4.7120   -8.3540 hc        1 VD4      0.045700
     60 H14         4.5450    4.3600   -6.5830 hc        1 VD4      0.056700
     61 H7          3.2190    7.3720   -7.7250 ha        1 VD4      0.125000
     62 H6          5.7800    8.7500   -6.6880 ha        1 VD4      0.122000
     63 H101        5.9670   11.0270   -6.8810 hc        1 VD4      0.063200
     64 H102        5.1820   11.4660   -8.4500 hc        1 VD4      0.063200
     65 H1          4.0920   12.0720   -5.5970 h1        1 VD4      0.044700
     66 HO1         4.6650   14.1740   -6.3030 ho        1 VD4      0.399500
     67 H41         2.1440    9.1700   -7.4770 hc        1 VD4      0.063200
     68 H42         2.7200   10.1210   -8.9180 hc        1 VD4      0.063200
     69 H3          1.0910   11.4760   -7.8660 h1        1 VD4      0.044700
     70 HO2         1.2750   11.8210   -5.5440 ho        1 VD4      0.399500
     71 H281        1.5070   13.7790   -8.3420 ha        1 VD4      0.119500
     72 H282        3.1540   14.5440   -7.9650 ha        1 VD4      0.119500
@<TRIPOS>BOND
     1    1    2 1   
     2    1   31 1   
     3    2    3 1   
     4    2    4 1   
     5    2    5 1   
     6    3   32 1   
     7    3   33 1   
     8    3   34 1   
     9    4   35 1   
    10    4   36 1   
    11    4   37 1   
    12    5    6 1   
    13    5   38 1   
    14    5   39 1   
    15    6    7 1   
    16    6   40 1   
    17    6   41 1   
    18    7    8 1   
    19    7   42 1   
    20    7   43 1   
    21    8    9 1   
    22    8   10 2   
    23    9   44 1   
    24    9   45 1   
    25    9   46 1   
    26   10   11 1   
    27   10   16 1   
    28   11   12 1   
    29   11   13 1   
    30   11   18 1   
    31   12   47 1   
    32   12   48 1   
    33   12   49 1   
    34   13   14 1   
    35   13   50 1   
    36   13   51 1   
    37   14   15 1   
    38   14   52 1   
    39   14   53 1   
    40   15   19 1   
    41   15   54 1   
    42   15   55 1   
    43   16   17 1   
    44   16   56 1   
    45   16   57 1   
    46   17   18 1   
    47   17   58 1   
    48   17   59 1   
    49   18   19 1   
    50   18   60 1   
    51   19   20 2   
    52   20   21 1   
    53   20   61 1   
    54   21   22 2   
    55   21   62 1   
    56   22   23 1   
    57   22   26 1   
    58   23   24 1   
    59   23   63 1   
    60   23   64 1   
    61   24   25 1   
    62   24   29 1   
    63   24   65 1   
    64   25   66 1   
    65   26   27 1   
    66   26   67 1   
    67   26   68 1   
    68   27   28 1   
    69   27   29 1   
    70   27   69 1   
    71   28   70 1   
    72   29   30 2   
    73   30   71 1   
    74   30   72 1   
@<TRIPOS>SUBSTRUCTURE
     1 VD4         1 TEMP              0 ****  ****    0 ROOT
