@<TRIPOS>MOLECULE
molecule
   72    74     1     0     0
SMALL
bcc


@<TRIPOS>ATOM
      1 O2           0.0000     0.0000     0.0000 oh         1 VD5      -0.603800
      2 C3           1.4280     0.0000     0.0000 c3         1 VD5       0.194800
      3 C2           1.9410     0.0000     1.4260 c2         1 VD5      -0.152400
      4 C28          2.6110     1.0550     1.9170 c2         1 VD5      -0.191000
      5 C1           1.6670    -1.2810     2.1940 c3         1 VD5       0.194800
      6 O1           2.2650    -1.2870     3.4870 oh         1 VD5      -0.603800
      7 C10          2.2090    -2.4910     1.4220 c3         1 VD5      -0.048200
      8 C4           1.9210    -1.2320    -0.7740 c3         1 VD5      -0.048200
      9 C5           1.6930    -2.5080     0.0070 c2         1 VD5      -0.106400
     10 C6           1.0570    -3.5670    -0.5150 ce         1 VD5      -0.125000
     11 C7           0.5550    -3.6020    -1.8660 ce         1 VD5      -0.147000
     12 C8          -0.0820    -4.6610    -2.3870 c2         1 VD5      -0.088400
     13 C9          -0.3180    -5.9130    -1.5660 c3         1 VD5      -0.041200
     14 C11         -0.7160    -7.1200    -2.4260 c3         1 VD5      -0.075400
     15 C12         -1.8850    -6.8630    -3.4000 c3         1 VD5      -0.063400
     16 C14         -0.6120    -4.7260    -3.7950 c3         1 VD5      -0.025500
     17 C13         -2.0130    -5.3840    -3.8390 c3         1 VD5      -0.010800
     18 C18         -3.0730    -4.6720    -2.9620 c3         1 VD5      -0.077100
     19 C15         -0.7760    -3.4570    -4.6310 c3         1 VD5      -0.074400
     20 C16         -1.6160    -3.9330    -5.8220 c3         1 VD5      -0.041200
     21 C17         -2.3840    -5.1230    -5.2910 c2         1 VD5      -0.124400
     22 C20         -3.2340    -5.8410    -6.0360 c2         1 VD5      -0.123400
     23 C21         -3.9780    -7.0180    -5.4680 c3         1 VD5      -0.050900
     24 C22         -3.5170    -5.4860    -7.4780 c3         1 VD5      -0.038200
     25 C23         -4.7320    -4.5630    -7.6310 c3         1 VD5      -0.069400
     26 C24         -5.0070    -4.2540    -9.1100 c3         1 VD5      -0.062400
     27 C25         -6.2300    -3.3460    -9.3570 c3         1 VD5       0.150800
     28 C27         -6.4670    -3.0770   -10.8450 c3         1 VD5      -0.119100
     29 C26         -6.0460    -2.0220    -8.6080 c3         1 VD5      -0.119100
     30 O3          -7.3860    -3.9950    -8.8250 oh         1 VD5      -0.607800
     31 HO2         -0.3140     0.8240    -0.3350 ho         1 VD5       0.401500
     32 H3           1.7850     0.8920    -0.5000 h1         1 VD5       0.042700
     33 H281         2.9840     1.0340     2.9340 ha         1 VD5       0.122000
     34 H282         2.7900     1.9220     1.2920 ha         1 VD5       0.122000
     35 H1           0.5950    -1.3940     2.3030 h1         1 VD5       0.042700
     36 HO1          1.6140    -1.5010     4.1340 ho         1 VD5       0.401500
     37 H101         3.2910    -2.4430     1.4040 hc         1 VD5       0.056950
     38 H102         1.8970    -3.3990     1.9230 hc         1 VD5       0.056950
     39 H41          2.9800    -1.1240    -0.9700 hc         1 VD5       0.056950
     40 H42          1.3860    -1.2940    -1.7140 hc         1 VD5       0.056950
     41 H6           0.9080    -4.4420     0.1060 ha         1 VD5       0.122000
     42 H7           0.7040    -2.7270    -2.4870 ha         1 VD5       0.125000
     43 H91          0.5910    -6.1530    -1.0280 hc         1 VD5       0.050700
     44 H92         -1.1110    -5.7170    -0.8530 hc         1 VD5       0.050700
     45 H111        -0.9950    -7.9320    -1.7660 hc         1 VD5       0.038700
     46 H112         0.1480    -7.4250    -3.0050 hc         1 VD5       0.038700
     47 H121        -2.8080    -7.1600    -2.9160 hc         1 VD5       0.043700
     48 H122        -1.7390    -7.4740    -4.2830 hc         1 VD5       0.043700
     49 H14          0.0590    -5.3750    -4.3440 hc         1 VD5       0.059700
     50 H181        -2.5860    -3.9400    -2.3290 hc         1 VD5       0.039033
     51 H182        -3.7940    -4.1750    -3.6000 hc         1 VD5       0.039033
     52 H183        -3.5810    -5.4020    -2.3440 hc         1 VD5       0.039033
     53 H151        -1.3060    -2.6970    -4.0700 hc         1 VD5       0.047200
     54 H152         0.1880    -3.0950    -4.9660 hc         1 VD5       0.047200
     55 H161        -0.9730    -4.2340    -6.6400 hc         1 VD5       0.051700
     56 H162        -2.3000    -3.1530    -6.1350 hc         1 VD5       0.051700
     57 H211        -4.3850    -6.7540    -4.5000 hc         1 VD5       0.041700
     58 H212        -4.7850    -7.2920    -6.1370 hc         1 VD5       0.041700
     59 H213        -3.2990    -7.8550    -5.3590 hc         1 VD5       0.041700
     60 H221        -3.6990    -6.3980    -8.0340 hc         1 VD5       0.042200
     61 H222        -2.6480    -4.9900    -7.8940 hc         1 VD5       0.042200
     62 H231        -5.6020    -5.0460    -7.2020 hc         1 VD5       0.050200
     63 H232        -4.5430    -3.6360    -7.1040 hc         1 VD5       0.050200
     64 H241        -4.1320    -3.7710    -9.5270 hc         1 VD5       0.043200
     65 H242        -5.1650    -5.1900    -9.6320 hc         1 VD5       0.043200
     66 H271        -6.6580    -4.0130   -11.3560 hc         1 VD5       0.042033
     67 H272        -7.3210    -2.4210   -10.9620 hc         1 VD5       0.042033
     68 H273        -5.5890    -2.6050   -11.2710 hc         1 VD5       0.042033
     69 H261        -6.2330    -2.1760    -7.5520 hc         1 VD5       0.042033
     70 H262        -5.0330    -1.6650    -8.7480 hc         1 VD5       0.042033
     71 H263        -6.7440    -1.2890    -8.9950 hc         1 VD5       0.042033
     72 HO3         -8.1610    -3.6350    -9.2240 ho         1 VD5       0.400000
@<TRIPOS>BOND
     1    23    22 1
     2    30    27 1
     3    24    22 1
     4    24    25 1
     5    29    27 1
     6    22    21 2
     7    26    27 1
     8    26    25 1
     9    27    28 1
    10    15    14 1
    11    15    17 1
    12    21    17 1
    13    21    20 1
    14    14    13 1
    15    17    16 1
    16    17    18 1
    17    20    19 1
    18    13    12 1
    19    16    19 1
    20    16    12 1
    21    12    11 2
    22    11    10 1
    23    10     9 2
    24     9     8 1
    25     9     7 1
    26     8     2 1
    27     7     5 1
    28     1     2 1
    29     2     3 1
    30     5     3 1
    31     5     6 1
    32     3     4 2
    33     1    31 1
    34     2    32 1
    35     4    33 1
    36     4    34 1
    37     5    35 1
    38     6    36 1
    39     7    37 1
    40     7    38 1
    41     8    39 1
    42     8    40 1
    43    10    41 1
    44    11    42 1
    45    13    43 1
    46    13    44 1
    47    14    45 1
    48    14    46 1
    49    15    47 1
    50    15    48 1
    51    16    49 1
    52    18    50 1
    53    18    51 1
    54    18    52 1
    55    19    53 1
    56    19    54 1
    57    20    55 1
    58    20    56 1
    59    23    57 1
    60    23    58 1
    61    23    59 1
    62    24    60 1
    63    24    61 1
    64    25    62 1
    65    25    63 1
    66    26    64 1
    67    26    65 1
    68    28    66 1
    69    28    67 1
    70    28    68 1
    71    29    69 1
    72    29    70 1
    73    29    71 1
    74    30    72 1
@<TRIPOS>SUBSTRUCTURE
     1 VD5         1 TEMP              0 ****  ****    0 ROOT
