@<TRIPOS>MOLECULE
VD5
   72    74     1     0     0
SMALL
bcc


@<TRIPOS>ATOM
      1 O2          0.7400    0.6020   -0.2810 oh        1 VD5     -0.599300
      2 C3          2.0290    0.0590   -0.0120 c3        1 VD5      0.184300
      3 C2          2.3210    0.0120    1.4610 c2        1 VD5     -0.171400
      4 C28         3.2350    0.7950    2.0370 c2        1 VD5     -0.174000
      5 C1          1.4930   -0.9910    2.2040 c3        1 VD5      0.184300
      6 O1          1.8780   -0.9870    3.5750 oh        1 VD5     -0.599300
      7 C10         1.6780   -2.3850    1.5970 c3        1 VD5     -0.053700
      8 C4          2.0690   -1.3310   -0.6530 c3        1 VD5     -0.053700
      9 C5          1.3730   -2.3800    0.1380 c2        1 VD5     -0.100400
     10 C6          0.5580   -3.3130   -0.3880 ce        1 VD5     -0.123000
     11 C7          0.1740   -3.4220   -1.7770 ce        1 VD5     -0.150000
     12 C8         -0.2700   -4.5560   -2.3470 c2        1 VD5     -0.082400
     13 C9         -0.3910   -5.8570   -1.6200 c3        1 VD5     -0.044200
     14 C11        -0.6190   -7.0370   -2.5480 c3        1 VD5     -0.074400
     15 C12        -1.7770   -6.8710   -3.5210 c3        1 VD5     -0.065400
     16 C14        -0.6570   -4.6590   -3.7740 c3        1 VD5     -0.031500
     17 C13        -2.0060   -5.4200   -3.9270 c3        1 VD5     -0.002800
     18 C18        -3.0980   -4.8030   -3.0580 c3        1 VD5     -0.080100
     19 C15        -0.8310   -3.4060   -4.6220 c3        1 VD5     -0.074400
     20 C16        -1.6780   -3.8830   -5.8040 c3        1 VD5     -0.044200
     21 C17        -2.3670   -5.1500   -5.3710 c2        1 VD5     -0.114400
     22 C20        -3.1880   -5.8550   -6.1650 c2        1 VD5     -0.113400
     23 C21        -3.9020   -7.0820   -5.7370 c3        1 VD5     -0.057900
     24 C22        -3.4480   -5.4540   -7.5810 c3        1 VD5     -0.042200
     25 C23        -4.7010   -4.6050   -7.6990 c3        1 VD5     -0.074400
     26 C24        -4.9480   -4.2050   -9.1360 c3        1 VD5     -0.065400
     27 C25        -6.3010   -3.5140   -9.3380 c3        1 VD5      0.147800
     28 C27        -6.4510   -3.1040  -10.8000 c3        1 VD5     -0.123600
     29 C26        -6.4520   -2.2930   -8.4400 c3        1 VD5     -0.123600
     30 O3         -7.2940   -4.4880   -9.0090 oh        1 VD5     -0.597800
     31 HO2         0.6390    1.3800    0.2810 ho        1 VD5      0.403000
     32 H3          2.7940    0.7130   -0.5270 h1        1 VD5      0.045200
     33 H281        3.8250    1.5270    1.4690 ha        1 VD5      0.124500
     34 H282        3.4460    0.7450    3.1140 ha        1 VD5      0.124500
     35 H1          0.4070   -0.6870    2.1240 h1        1 VD5      0.045200
     36 HO1         1.3500   -1.6680    4.0080 ho        1 VD5      0.403000
     37 H101        2.7420   -2.7120    1.7530 hc        1 VD5      0.058200
     38 H102        1.0200   -3.1100    2.1450 hc        1 VD5      0.058200
     39 H41         3.1480   -1.6270   -0.7620 hc        1 VD5      0.058200
     40 H42         1.6290   -1.2440   -1.6820 hc        1 VD5      0.058200
     41 H6          0.1210   -4.0790    0.2800 ha        1 VD5      0.118000
     42 H7          0.2370   -2.5010   -2.3830 ha        1 VD5      0.132000
     43 H91         0.5450   -6.0430   -1.0260 hc        1 VD5      0.049700
     44 H92        -1.2370   -5.7860   -0.8840 hc        1 VD5      0.049700
     45 H111       -0.8010   -7.9520   -1.9250 hc        1 VD5      0.039200
     46 H112        0.3230   -7.2210   -3.1300 hc        1 VD5      0.039200
     47 H121       -2.7110   -7.2780   -3.0500 hc        1 VD5      0.044200
     48 H122       -1.5730   -7.4880   -4.4350 hc        1 VD5      0.044200
     49 H14         0.1410   -5.2830   -4.2800 hc        1 VD5      0.061700
     50 H181       -2.8500   -4.9150   -1.9760 hc        1 VD5      0.037367
     51 H182       -3.2090   -3.7170   -3.2870 hc        1 VD5      0.037367
     52 H183       -4.0730   -5.3100   -3.2560 hc        1 VD5      0.037367
     53 H151       -1.3600   -2.6020   -4.0520 hc        1 VD5      0.047200
     54 H152        0.1520   -2.9990   -4.9600 hc        1 VD5      0.047200
     55 H161       -1.0260   -4.0820   -6.6930 hc        1 VD5      0.049200
     56 H162       -2.4320   -3.1100   -6.0980 hc        1 VD5      0.049200
     57 H211       -3.2790   -7.9850   -5.9560 hc        1 VD5      0.042033
     58 H212       -4.8700   -7.1840   -6.2900 hc        1 VD5      0.042033
     59 H213       -4.1280   -7.0640   -4.6430 hc        1 VD5      0.042033
     60 H221       -3.5660   -6.3790   -8.2090 hc        1 VD5      0.043200
     61 H222       -2.5740   -4.8850   -7.9970 hc        1 VD5      0.043200
     62 H231       -4.5900   -3.6890   -7.0610 hc        1 VD5      0.051700
     63 H232       -5.5870   -5.1780   -7.3160 hc        1 VD5      0.051700
     64 H241       -4.1440   -3.5070   -9.4860 hc        1 VD5      0.047200
     65 H242       -4.9230   -5.1180   -9.7870 hc        1 VD5      0.047200
     66 H271       -5.6570   -2.3720  -11.0750 hc        1 VD5      0.042367
     67 H272       -6.3660   -4.0010  -11.4590 hc        1 VD5      0.042367
     68 H273       -7.4490   -2.6330  -10.9690 hc        1 VD5      0.042367
     69 H261       -7.3720   -1.7230   -8.7120 hc        1 VD5      0.042367
     70 H262       -6.5350   -2.6120   -7.3730 hc        1 VD5      0.042367
     71 H263       -5.5670   -1.6240   -8.5520 hc        1 VD5      0.042367
     72 HO3        -8.1500   -4.0600   -9.1250 ho        1 VD5      0.397000
@<TRIPOS>BOND
     1    1    2 1   
     2    1   31 1   
     3    2    3 1   
     4    2    8 1   
     5    2   32 1   
     6    3    4 2   
     7    3    5 1   
     8    4   33 1   
     9    4   34 1   
    10    5    6 1   
    11    5    7 1   
    12    5   35 1   
    13    6   36 1   
    14    7    9 1   
    15    7   37 1   
    16    7   38 1   
    17    8    9 1   
    18    8   39 1   
    19    8   40 1   
    20    9   10 2   
    21   10   11 1   
    22   10   41 1   
    23   11   12 2   
    24   11   42 1   
    25   12   13 1   
    26   12   16 1   
    27   13   14 1   
    28   13   43 1   
    29   13   44 1   
    30   14   15 1   
    31   14   45 1   
    32   14   46 1   
    33   15   17 1   
    34   15   47 1   
    35   15   48 1   
    36   16   17 1   
    37   16   19 1   
    38   16   49 1   
    39   17   18 1   
    40   17   21 1   
    41   18   50 1   
    42   18   51 1   
    43   18   52 1   
    44   19   20 1   
    45   19   53 1   
    46   19   54 1   
    47   20   21 1   
    48   20   55 1   
    49   20   56 1   
    50   21   22 2   
    51   22   23 1   
    52   22   24 1   
    53   23   57 1   
    54   23   58 1   
    55   23   59 1   
    56   24   25 1   
    57   24   60 1   
    58   24   61 1   
    59   25   26 1   
    60   25   62 1   
    61   25   63 1   
    62   26   27 1   
    63   26   64 1   
    64   26   65 1   
    65   27   28 1   
    66   27   29 1   
    67   27   30 1   
    68   28   66 1   
    69   28   67 1   
    70   28   68 1   
    71   29   69 1   
    72   29   70 1   
    73   29   71 1   
    74   30   72 1   
@<TRIPOS>SUBSTRUCTURE
     1 VD5         1 TEMP              0 ****  ****    0 ROOT
