@<TRIPOS>MOLECULE
molecule
   28    28     1     0     0
SMALL
bcc


@<TRIPOS>ATOM
      1 O4           0.0000     0.0000     0.0000 o          1 VD9      -0.522800
      2 S2           1.4210     0.0000     0.0000 sy         1 VD9       1.222200
      3 O1           2.1980     0.0000     1.1900 o          1 VD9      -0.522800
      4 N3           1.8890    -1.3320    -0.8640 nz         1 VD9      -0.805500
      5 C5           1.9190     1.4190    -0.9190 ca         1 VD9      -0.365500
      6 C10          3.1690     1.9710    -0.7120 ca         1 VD9      -0.009500
      7 C9           3.5620     3.0840    -1.4300 ca         1 VD9      -0.147500
      8 C8           2.6980     3.6480    -2.3610 ca         1 VD9       0.114900
      9 C7           1.4420     3.0900    -2.5660 ca         1 VD9      -0.147500
     10 C6           1.0590     1.9740    -1.8490 ca         1 VD9      -0.009500
     11 S11          3.1960     5.0670    -3.2790 ss         1 VD9      -0.140000
     12 C12          1.7530     5.4000    -4.3280 c3         1 VD9      -0.021300
     13 C13          2.0290     6.6250    -5.2010 c3         1 VD9      -0.071400
     14 C14          0.8140     6.9060    -6.0860 c3         1 VD9      -0.089100
     15 H1           1.6210    -2.1610    -0.3710 hn         1 VD9       0.490467
     16 H2           1.4470    -1.3200    -1.7620 hn         1 VD9       0.490467
     17 H3           3.8410     1.5310     0.0150 ha         1 VD9       0.155000
     18 H4           4.5420     3.5160    -1.2670 ha         1 VD9       0.167500
     19 H5           0.7670     3.5260    -3.2930 ha         1 VD9       0.167500
     20 H6           0.0800     1.5390    -2.0080 ha         1 VD9       0.155000
     21 H7           1.5610     4.5420    -4.9600 h1         1 VD9       0.070700
     22 H8           0.8890     5.5890    -3.7030 h1         1 VD9       0.070700
     23 H9           2.8940     6.4360    -5.8260 hc         1 VD9       0.061700
     24 H10          2.2220     7.4840    -4.5690 hc         1 VD9       0.061700
     25 H11          0.6210     6.0480    -6.7180 hc         1 VD9       0.045033
     26 H12         -0.0510     7.0960    -5.4610 hc         1 VD9       0.045033
     27 H13          1.0100     7.7740    -6.7040 hc         1 VD9       0.045033
     28 H33          2.8830    -1.3220    -0.9800 hn         1 VD9       0.490467
@<TRIPOS>BOND
     1    14    13 1
     2     1     2 2
     3    13    12 1
     4     2     3 2
     5     2     5 1
     6     2     4 1
     7     6     5 ar
     8     6     7 ar
     9     5    10 ar
    10    12    11 1
    11     7     8 ar
    12    10     9 ar
    13     8     9 ar
    14     8    11 1
    15     4    15 1
    16     4    16 1
    17     6    17 1
    18     7    18 1
    19     9    19 1
    20    10    20 1
    21    12    21 1
    22    12    22 1
    23    13    23 1
    24    13    24 1
    25    14    25 1
    26    14    26 1
    27    14    27 1
    28    28     4 1
@<TRIPOS>SUBSTRUCTURE
     1 VD9         1 TEMP              0 ****  ****    0 ROOT
