@<TRIPOS>MOLECULE
molecule
   80    82     1     0     0
SMALL
bcc


@<TRIPOS>ATOM
      1 O2           0.0000     0.0000     0.0000 oh         1 VDA      -0.592800
      2 C1           1.3620     2.5010    -0.0580 c3         1 VDA       0.142600
      3 C2           1.9390     1.2490    -0.7190 c3         1 VDA       0.148100
      4 C3           1.4290     0.0000     0.0000 c3         1 VDA       0.142600
      5 C4           1.9400     0.0000     1.4450 c3         1 VDA      -0.063200
      6 C5           1.5370     1.3040     2.0970 c2         1 VDA      -0.110400
      7 C6           0.9070     1.3130     3.2670 ce         1 VDA      -0.132000
      8 C7           0.6400     2.5910     3.9480 ce         1 VDA      -0.151000
      9 C8           0.1010     2.5950     5.1630 c2         1 VDA      -0.093400
     10 C9          -0.2650     1.3180     5.9100 c3         1 VDA      -0.044200
     11 C10          1.8700     2.5950     1.3850 c3         1 VDA      -0.063200
     12 C11          0.3330     1.3140     7.3150 c3         1 VDA      -0.080400
     13 C12          0.0750     2.6380     8.0570 c3         1 VDA      -0.057400
     14 C13          0.6480     3.7410     7.2170 c3         1 VDA      -0.033800
     15 C14         -0.1910     3.8590     5.9190 c3         1 VDA      -0.033500
     16 C15          0.4200     5.1570     5.3860 c3         1 VDA      -0.051200
     17 C16          0.6810     5.9480     6.6650 c2         1 VDA      -0.167200
     18 C17          0.7730     5.1350     7.6970 c2         1 VDA      -0.099400
     19 C18          2.0480     3.3020     6.7840 c3         1 VDA      -0.099100
     20 C20          0.9870     5.5560     9.1290 c3         1 VDA       0.072600
     21 C21         -0.2830     5.2810     9.9370 c3         1 VDA      -0.093100
     22 S22          1.3700     7.3280     9.1880 ss         1 VDA      -0.313200
     23 C23          1.7400     7.6080    10.9420 c3         1 VDA       0.016700
     24 C25          2.0890     9.0810    11.1610 c3         1 VDA       0.169800
     25 O3           0.9430     9.8880    10.8830 oh         1 VDA      -0.591800
     26 C26          2.5210     9.2920    12.6130 c3         1 VDA      -0.109400
     27 C27          3.2320     9.4790    10.2250 c3         1 VDA      -0.109400
     28 O1           1.7750     3.6590    -0.7860 oh         1 VDA      -0.592800
     29 O4           1.5350     1.2060    -2.0900 os         1 VDA      -0.393600
     30 C30          2.4710     0.5550    -2.9510 c3         1 VDA       0.138400
     31 C31          1.9370     0.5680    -4.3850 c3         1 VDA       0.144400
     32 O5           1.8660     1.9170    -4.8540 oh         1 VDA      -0.593800
     33 C29          1.4050     8.8250    13.5510 c3         1 VDA      -0.098100
     34 C28          3.5820    10.9520    10.4450 c3         1 VDA      -0.098100
     35 HO2         -0.3140    -0.8780    -0.1410 ho         1 VDA       0.402000
     36 H1           0.2800     2.4390    -0.0540 h1         1 VDA       0.049200
     37 H2           3.0200     1.2790    -0.6590 h1         1 VDA       0.050700
     38 H3           1.7940    -0.8830    -0.5100 h1         1 VDA       0.049200
     39 H4           1.4990    -0.8280     1.9860 hc         1 VDA       0.056950
     40 H4A          3.0200    -0.0890     1.4480 hc         1 VDA       0.056950
     41 H6           0.6760     0.3790     3.7630 ha         1 VDA       0.129000
     42 H7           0.8820     3.5270     3.4600 ha         1 VDA       0.138000
     43 H9           0.1140     0.4640     5.3610 hc         1 VDA       0.050700
     44 H9A         -1.3440     1.2480     5.9840 hc         1 VDA       0.050700
     45 H10          1.3850     3.4230     1.8870 hc         1 VDA       0.056950
     46 H10A         2.9440     2.7420     1.3830 hc         1 VDA       0.056950
     47 H11          1.4020     1.1560     7.2400 hc         1 VDA       0.044200
     48 H11A        -0.1100     0.5030     7.8820 hc         1 VDA       0.044200
     49 H12         -0.9900     2.7870     8.1820 hc         1 VDA       0.044200
     50 H12A         0.5670     2.6190     9.0220 hc         1 VDA       0.044200
     51 H14         -1.2470     3.9690     6.1380 hc         1 VDA       0.072700
     52 H15          1.3480     4.9580     4.8640 hc         1 VDA       0.055200
     53 H15A        -0.2840     5.6800     4.7500 hc         1 VDA       0.055200
     54 H16          0.2510     6.9340     6.7900 ha         1 VDA       0.156000
     55 H18          2.5750     2.8880     7.6350 hc         1 VDA       0.042367
     56 H18A         1.9670     2.5490     6.0090 hc         1 VDA       0.042367
     57 H18B         2.5930     4.1560     6.4030 hc         1 VDA       0.042367
     58 H20          1.8120     4.9940     9.5510 h1         1 VDA       0.068700
     59 H21         -0.6600     6.2110    10.3450 hc         1 VDA       0.045033
     60 H21A        -1.0330     4.8400     9.2910 hc         1 VDA       0.045033
     61 H21B        -0.0560     4.5970    10.7460 hc         1 VDA       0.045033
     62 H23          2.5800     6.9900    11.2360 h1         1 VDA       0.063700
     63 H23A         0.8740     7.3490    11.5390 h1         1 VDA       0.063700
     64 HO3          0.9470    10.6450    11.4460 ho         1 VDA       0.403000
     65 H26          2.7180    10.3440    12.7820 hc         1 VDA       0.056700
     66 H26A         3.4200     8.7210    12.8090 hc         1 VDA       0.056700
     67 H27          4.1000     8.8660    10.4340 hc         1 VDA       0.056700
     68 H27A         2.9240     9.3310     9.1970 hc         1 VDA       0.056700
     69 HO1          1.0700     4.2850    -0.8070 ho         1 VDA       0.402000
     70 H30          2.6080    -0.4700    -2.6270 h1         1 VDA       0.029200
     71 H30A         3.4200     1.0760    -2.9140 h1         1 VDA       0.029200
     72 H31          0.9480     0.1260    -4.4070 h1         1 VDA       0.027200
     73 H31A         2.6020    -0.0010    -5.0240 h1         1 VDA       0.027200
     74 HO5          1.7190     1.9190    -5.7860 ho         1 VDA       0.397000
     75 H29          0.4490     8.9280    13.0530 hc         1 VDA       0.037033
     76 H29A         1.5660     7.7870    13.8140 hc         1 VDA       0.037033
     77 H29B         1.4110     9.4310    14.4490 hc         1 VDA       0.037033
     78 H28          4.2180    11.2970     9.6390 hc         1 VDA       0.037033
     79 H28A         2.6730    11.5410    10.4650 hc         1 VDA       0.037033
     80 H28B         4.1040    11.0620    11.3880 hc         1 VDA       0.037033
@<TRIPOS>BOND
     1     1     4 1
     2     2     3 1
     3     2    11 1
     4     2    28 1
     5     3     4 1
     6     3    29 1
     7     4     5 1
     8     5     6 1
     9     6     7 2
    10     6    11 1
    11     7     8 1
    12     8     9 2
    13     9    10 1
    14     9    15 1
    15    10    12 1
    16    12    13 1
    17    13    14 1
    18    14    15 1
    19    14    18 1
    20    14    19 1
    21    15    16 1
    22    16    17 1
    23    17    18 2
    24    18    20 1
    25    20    21 1
    26    20    22 1
    27    22    23 1
    28    23    24 1
    29    24    25 1
    30    24    26 1
    31    24    27 1
    32    26    33 1
    33    27    34 1
    34    29    30 1
    35    30    31 1
    36    31    32 1
    37     1    35 1
    38     2    36 1
    39     3    37 1
    40     4    38 1
    41     5    39 1
    42     5    40 1
    43     7    41 1
    44     8    42 1
    45    10    43 1
    46    10    44 1
    47    11    45 1
    48    11    46 1
    49    12    47 1
    50    12    48 1
    51    13    49 1
    52    13    50 1
    53    15    51 1
    54    16    52 1
    55    16    53 1
    56    17    54 1
    57    19    55 1
    58    19    56 1
    59    19    57 1
    60    20    58 1
    61    21    59 1
    62    21    60 1
    63    21    61 1
    64    23    62 1
    65    23    63 1
    66    25    64 1
    67    26    65 1
    68    26    66 1
    69    27    67 1
    70    27    68 1
    71    28    69 1
    72    30    70 1
    73    30    71 1
    74    31    72 1
    75    31    73 1
    76    32    74 1
    77    33    75 1
    78    33    76 1
    79    33    77 1
    80    34    78 1
    81    34    79 1
    82    34    80 1
@<TRIPOS>SUBSTRUCTURE
     1 VDA         1 TEMP              0 ****  ****    0 ROOT
