@<TRIPOS>MOLECULE
VDA
   80    82     1     0     0
SMALL
bcc


@<TRIPOS>ATOM
      1 O2          0.2080   -0.2840   -0.0490 oh        1 VDA     -0.592300
      2 C1          2.0120    2.2760    0.1250 c3        1 VDA      0.137100
      3 C2          2.3310    0.8750   -0.4300 c3        1 VDA      0.075100
      4 C3          1.5740   -0.2320    0.3160 c3        1 VDA      0.137100
      5 C4          1.7530   -0.1040    1.8270 c3        1 VDA     -0.059200
      6 C5          1.5060    1.2760    2.3340 c2        1 VDA     -0.131400
      7 C6          0.6900    1.4900    3.3810 ce        1 VDA     -0.109000
      8 C7          0.3750    2.7790    3.9550 ce        1 VDA     -0.156000
      9 C8         -0.0100    2.9860    5.2250 c2        1 VDA     -0.067400
     10 C9         -0.1810    1.9180    6.2600 c3        1 VDA     -0.046200
     11 C10         2.2710    2.3370    1.6280 c3        1 VDA     -0.059200
     12 C11         0.3730    2.2650    7.6350 c3        1 VDA     -0.071400
     13 C12         0.1420    3.6960    8.0970 c3        1 VDA     -0.064400
     14 C13         0.5120    4.6680    6.9920 c3        1 VDA     -0.011800
     15 C14        -0.3880    4.3140    5.7650 c3        1 VDA     -0.042500
     16 C15        -0.3930    5.6020    4.9350 c3        1 VDA     -0.043200
     17 C16        -0.2700    6.6580    6.0030 c2        1 VDA     -0.163200
     18 C17         0.1810    6.1430    7.1720 c2        1 VDA     -0.107400
     19 C18         1.9960    4.5630    6.6680 c3        1 VDA     -0.081100
     20 C20         0.3920    6.8430    8.4480 c3        1 VDA      0.080600
     21 C21        -0.7920    7.6840    8.8570 c3        1 VDA     -0.079100
     22 S22         1.8360    7.9040    8.2650 ss        1 VDA     -0.318200
     23 C23         2.8290    7.5550    9.6840 c3        1 VDA     -0.003300
     24 C25         2.3260    8.0260   11.0520 c3        1 VDA      0.154800
     25 O3          1.2460    7.1530   11.3880 oh        1 VDA     -0.605800
     26 C26         3.4550    7.8900   12.0870 c3        1 VDA     -0.113900
     27 C27         1.8580    9.4850   10.9890 c3        1 VDA     -0.113900
     28 O1          2.8530    3.2460   -0.4770 oh        1 VDA     -0.592300
     29 O4          1.9620    0.9490   -1.8070 os        1 VDA     -0.441600
     30 C30         2.1550   -0.2710   -2.5240 c3        1 VDA      0.086400
     31 C31         2.0330    0.0860   -4.0020 c3        1 VDA      0.128400
     32 O5          3.1000    0.9060   -4.4310 oh        1 VDA     -0.598800
     33 C29         3.9240    6.4710   12.2690 c3        1 VDA     -0.095600
     34 C28         0.9670    9.8880   12.1340 c3        1 VDA     -0.095600
     35 HO2        -0.1770    0.5790    0.1500 ho        1 VDA      0.411000
     36 H1          0.9360    2.5230   -0.1000 h1        1 VDA      0.059700
     37 H2          3.4370    0.6790   -0.3540 h1        1 VDA      0.059700
     38 H3          1.9700   -1.2370   -0.0150 h1        1 VDA      0.059700
     39 H4          1.0640   -0.8390    2.3220 hc        1 VDA      0.065200
     40 H4A         2.8070   -0.3950    2.0840 hc        1 VDA      0.065200
     41 H6          0.1930    0.6220    3.8550 ha        1 VDA      0.124000
     42 H7          0.4470    3.6460    3.2730 ha        1 VDA      0.129000
     43 H9         -1.2840    1.7160    6.3520 hc        1 VDA      0.047700
     44 H9A         0.3040    0.9630    5.9230 hc        1 VDA      0.047700
     45 H10         3.3700    2.1940    1.8170 hc        1 VDA      0.065200
     46 H10A        2.0070    3.3630    1.9930 hc        1 VDA      0.065200
     47 H11         1.4780    2.0620    7.6380 hc        1 VDA      0.040700
     48 H11A       -0.0890    1.5690    8.3840 hc        1 VDA      0.040700
     49 H12        -0.9320    3.8400    8.3840 hc        1 VDA      0.045200
     50 H12A        0.7640    3.8900    9.0100 hc        1 VDA      0.045200
     51 H14        -1.4470    4.1960    6.1520 hc        1 VDA      0.059700
     52 H15        -1.3320    5.7130    4.3430 hc        1 VDA      0.054700
     53 H15A        0.4770    5.6530    4.2330 hc        1 VDA      0.054700
     54 H16        -0.5370    7.6960    5.8010 ha        1 VDA      0.142000
     55 H18         2.2500    3.5410    6.2970 hc        1 VDA      0.040700
     56 H18A        2.2740    5.3030    5.8790 hc        1 VDA      0.040700
     57 H18B        2.5980    4.7780    7.5840 hc        1 VDA      0.040700
     58 H20         0.6120    6.1030    9.2650 h1        1 VDA      0.093700
     59 H21        -1.7090    7.0500    8.9320 hc        1 VDA      0.043033
     60 H21A       -0.9820    8.4950    8.1130 hc        1 VDA      0.043033
     61 H21B       -0.5940    8.1470    9.8570 hc        1 VDA      0.043033
     62 H23         3.7970    8.0730    9.4660 h1        1 VDA      0.079700
     63 H23A        3.0110    6.4530    9.7430 h1        1 VDA      0.079700
     64 HO3         0.9850    7.3660   12.2910 ho        1 VDA      0.405000
     65 H26         4.3120    8.5380   11.7690 hc        1 VDA      0.055200
     66 H26A        3.0820    8.2860   13.0690 hc        1 VDA      0.055200
     67 H27         2.7650   10.1440   10.9620 hc        1 VDA      0.055200
     68 H27A        1.3020    9.6320   10.0210 hc        1 VDA      0.055200
     69 HO1         2.7200    3.1710   -1.4310 ho        1 VDA      0.411000
     70 H30         3.1680   -0.6940   -2.2990 h1        1 VDA      0.049200
     71 H30A        1.3560   -1.0000   -2.2260 h1        1 VDA      0.049200
     72 H31         1.0520    0.5960   -4.1940 h1        1 VDA      0.055700
     73 H31A        2.1110   -0.8450   -4.6240 h1        1 VDA      0.055700
     74 HO5         3.0940    1.6910   -3.8690 ho        1 VDA      0.407000
     75 H29         3.0510    5.7860   12.4060 hc        1 VDA      0.037033
     76 H29A        4.5030    6.1250   11.3780 hc        1 VDA      0.037033
     77 H29B        4.5840    6.3940   13.1660 hc        1 VDA      0.037033
     78 H28        -0.0040    9.3360   12.0890 hc        1 VDA      0.037033
     79 H28A        1.4480    9.6790   13.1190 hc        1 VDA      0.037033
     80 H28B        0.7480   10.9820   12.0770 hc        1 VDA      0.037033
@<TRIPOS>BOND
     1    1    4 1   
     2    1   35 1   
     3    2    3 1   
     4    2   11 1   
     5    2   28 1   
     6    2   36 1   
     7    3    4 1   
     8    3   29 1   
     9    3   37 1   
    10    4    5 1   
    11    4   38 1   
    12    5    6 1   
    13    5   39 1   
    14    5   40 1   
    15    6    7 2   
    16    6   11 1   
    17    7    8 1   
    18    7   41 1   
    19    8    9 2   
    20    8   42 1   
    21    9   10 1   
    22    9   15 1   
    23   10   12 1   
    24   10   43 1   
    25   10   44 1   
    26   11   45 1   
    27   11   46 1   
    28   12   13 1   
    29   12   47 1   
    30   12   48 1   
    31   13   14 1   
    32   13   49 1   
    33   13   50 1   
    34   14   15 1   
    35   14   18 1   
    36   14   19 1   
    37   15   16 1   
    38   15   51 1   
    39   16   17 1   
    40   16   52 1   
    41   16   53 1   
    42   17   18 2   
    43   17   54 1   
    44   18   20 1   
    45   19   55 1   
    46   19   56 1   
    47   19   57 1   
    48   20   21 1   
    49   20   22 1   
    50   20   58 1   
    51   21   59 1   
    52   21   60 1   
    53   21   61 1   
    54   22   23 1   
    55   23   24 1   
    56   23   62 1   
    57   23   63 1   
    58   24   25 1   
    59   24   26 1   
    60   24   27 1   
    61   25   64 1   
    62   26   33 1   
    63   26   65 1   
    64   26   66 1   
    65   27   34 1   
    66   27   67 1   
    67   27   68 1   
    68   28   69 1   
    69   29   30 1   
    70   30   31 1   
    71   30   70 1   
    72   30   71 1   
    73   31   32 1   
    74   31   72 1   
    75   31   73 1   
    76   32   74 1   
    77   33   75 1   
    78   33   76 1   
    79   33   77 1   
    80   34   78 1   
    81   34   79 1   
    82   34   80 1   
@<TRIPOS>SUBSTRUCTURE
     1 VDA         1 TEMP              0 ****  ****    0 ROOT
