@<TRIPOS>MOLECULE
molecule
   80    82     1     0     0
SMALL
bcc


@<TRIPOS>ATOM
      1 C29          0.0000     0.0000     0.0000 c3         1 VDB      -0.093600
      2 C26          1.5310     0.0000     0.0000 c3         1 VDB      -0.093900
      3 C25          2.0400     0.0000     1.4420 c3         1 VDB       0.169800
      4 C27          1.4310     1.1820     2.1990 c3         1 VDB      -0.093900
      5 C28          1.8600     2.4900     1.5320 c3         1 VDB      -0.093600
      6 O3           1.6630    -1.2210     2.0810 oh         1 VDB      -0.588800
      7 C23          3.5660     0.1270     1.4440 c3         1 VDB      -0.018300
      8 S22          4.1590     0.2660     3.1520 ss         1 VDB      -0.313200
      9 C20          5.9560     0.4040     2.9500 c3         1 VDB       0.074600
     10 C21          6.5040    -0.8970     2.3580 c3         1 VDB      -0.084100
     11 C17          6.5950     0.6520     4.2920 c2         1 VDB      -0.099400
     12 C16          5.9850     0.5710     5.4670 c2         1 VDB      -0.168200
     13 C15          6.9470     0.9380     6.5930 c3         1 VDB      -0.050200
     14 C14          7.9890     1.7950     5.8710 c3         1 VDB      -0.033500
     15 C13          8.0110     1.0210     4.5190 c3         1 VDB      -0.033800
     16 C18          8.7790    -0.2780     4.7730 c3         1 VDB      -0.100100
     17 C12          8.8150     1.8120     3.5300 c3         1 VDB      -0.058400
     18 C11         10.2810     1.7850     4.0030 c3         1 VDB      -0.079400
     19 C9          10.4360     2.3320     5.4190 c3         1 VDB      -0.044200
     20 C8           9.4070     1.7210     6.3620 c2         1 VDB      -0.093400
     21 C7           9.7410     1.1580     7.5170 ce         1 VDB      -0.148000
     22 C6          11.1500     1.1210     7.9370 ce         1 VDB      -0.132000
     23 C5          11.4970     0.4760     9.0460 c2         1 VDB      -0.111400
     24 C10         12.9190     0.5190     9.5560 c3         1 VDB      -0.055200
     25 C1          13.3920    -0.9170     9.8070 c3         1 VDB       0.143100
     26 O1          14.6880    -0.8940    10.4080 oh         1 VDB      -0.594300
     27 C4          10.4760    -0.3160     9.8330 c3         1 VDB      -0.055200
     28 C3          11.0320    -1.7240    10.0740 c3         1 VDB       0.143100
     29 O2          11.1620    -2.4050     8.8240 oh         1 VDB      -0.594300
     30 C2          12.4080    -1.6190    10.7430 c3         1 VDB       0.133100
     31 O4          12.8920    -2.9290    11.0450 os         1 VDB      -0.398600
     32 C30         12.5040    -3.4090    12.3340 c3         1 VDB       0.136400
     33 C31         13.0750    -4.8130    12.5490 c3         1 VDB       0.144400
     34 O5          14.5020    -4.7450    12.5850 oh         1 VDB      -0.592800
     35 H29         -0.3610     1.0210     0.0110 hc         1 VDB       0.038200
     36 H29A        -0.3610    -0.5200     0.8790 hc         1 VDB       0.038200
     37 H29B        -0.3610    -0.5010    -0.8900 hc         1 VDB       0.038200
     38 H26          1.8920     0.8840    -0.5110 hc         1 VDB       0.054950
     39 H26A         1.8920    -0.8850    -0.5110 hc         1 VDB       0.054950
     40 H27          0.3500     1.1050     2.1800 hc         1 VDB       0.054950
     41 H27A         1.7750     1.1700     3.2260 hc         1 VDB       0.054950
     42 H28          0.9810     3.0580     1.2510 hc         1 VDB       0.038200
     43 H28A         2.4570     3.0700     2.2260 hc         1 VDB       0.038200
     44 H28B         2.4460     2.2700     0.6480 hc         1 VDB       0.038200
     45 HO3          1.7730    -1.9380     1.4790 ho         1 VDB       0.401000
     46 H23          3.8550     1.0100     0.8880 h1         1 VDB       0.058700
     47 H23A         4.0010    -0.7510     0.9810 h1         1 VDB       0.058700
     48 H20          6.1830     1.2280     2.2840 h1         1 VDB       0.067700
     49 H21          7.4610    -0.7050     1.8890 hc         1 VDB       0.042700
     50 H21A         5.8090    -1.2780     1.6190 hc         1 VDB       0.042700
     51 H21B         6.6280    -1.6290     3.1470 hc         1 VDB       0.042700
     52 H16          4.9340     0.8210     5.5500 ha         1 VDB       0.156000
     53 H15          6.4400     1.5150     7.3580 hc         1 VDB       0.054200
     54 H15A         7.4050     0.0490     7.0110 hc         1 VDB       0.054200
     55 H14          7.6540     2.8170     5.7380 hc         1 VDB       0.072700
     56 H18          9.1660    -0.6580     3.8360 hc         1 VDB       0.043700
     57 H18A         8.1130    -1.0110     5.2120 hc         1 VDB       0.043700
     58 H18B         9.6010    -0.0850     5.4520 hc         1 VDB       0.043700
     59 H12          8.7370     1.3590     2.5490 hc         1 VDB       0.043200
     60 H12A         8.4570     2.8340     3.5010 hc         1 VDB       0.043200
     61 H11         10.6380     0.7620     3.9810 hc         1 VDB       0.045200
     62 H11A        10.8780     2.3860     3.3270 hc         1 VDB       0.045200
     63 H9          10.3030     3.4070     5.3990 hc         1 VDB       0.050200
     64 H9A         11.4300     2.0990     5.7820 hc         1 VDB       0.050200
     65 H7           8.9740     0.7370     8.1560 ha         1 VDB       0.135000
     66 H6          11.8920     1.6870     7.3870 ha         1 VDB       0.131000
     67 H10         13.5570     0.9870     8.8150 hc         1 VDB       0.058450
     68 H10A        12.9560     1.0800    10.4820 hc         1 VDB       0.058450
     69 H1          13.4350    -1.4500     8.8650 h1         1 VDB       0.048700
     70 HO1         15.3410    -1.0760     9.7530 ho         1 VDB       0.403500
     71 H4          10.2950     0.1700    10.7840 hc         1 VDB       0.058450
     72 H4A          9.5540    -0.3810     9.2690 hc         1 VDB       0.058450
     73 H3          10.3570    -2.2710    10.7210 h1         1 VDB       0.048700
     74 HO2         10.6900    -3.2210     8.8600 ho         1 VDB       0.403500
     75 H2          12.3160    -1.0470    11.6580 h1         1 VDB       0.049700
     76 H30         11.4230    -3.4460    12.3950 h1         1 VDB       0.029700
     77 H30A        12.8870    -2.7430    13.0980 h1         1 VDB       0.029700
     78 H31         12.7640    -5.4580    11.7360 h1         1 VDB       0.028200
     79 H31A        12.7090    -5.2120    13.4870 h1         1 VDB       0.028200
     80 HO5         14.8440    -5.5260    12.9890 ho         1 VDB       0.397000
@<TRIPOS>BOND
     1     1     2 1
     2     2     3 1
     3     3     4 1
     4     3     6 1
     5     3     7 1
     6     4     5 1
     7     7     8 1
     8     8     9 1
     9     9    10 1
    10     9    11 1
    11    11    12 2
    12    11    15 1
    13    12    13 1
    14    13    14 1
    15    14    15 1
    16    14    20 1
    17    15    16 1
    18    15    17 1
    19    17    18 1
    20    18    19 1
    21    19    20 1
    22    20    21 2
    23    21    22 1
    24    22    23 2
    25    23    24 1
    26    23    27 1
    27    24    25 1
    28    25    26 1
    29    25    30 1
    30    27    28 1
    31    28    29 1
    32    28    30 1
    33    30    31 1
    34    31    32 1
    35    32    33 1
    36    33    34 1
    37     1    35 1
    38     1    36 1
    39     1    37 1
    40     2    38 1
    41     2    39 1
    42     4    40 1
    43     4    41 1
    44     5    42 1
    45     5    43 1
    46     5    44 1
    47     6    45 1
    48     7    46 1
    49     7    47 1
    50     9    48 1
    51    10    49 1
    52    10    50 1
    53    10    51 1
    54    12    52 1
    55    13    53 1
    56    13    54 1
    57    14    55 1
    58    16    56 1
    59    16    57 1
    60    16    58 1
    61    17    59 1
    62    17    60 1
    63    18    61 1
    64    18    62 1
    65    19    63 1
    66    19    64 1
    67    21    65 1
    68    22    66 1
    69    24    67 1
    70    24    68 1
    71    25    69 1
    72    26    70 1
    73    27    71 1
    74    27    72 1
    75    28    73 1
    76    29    74 1
    77    30    75 1
    78    32    76 1
    79    32    77 1
    80    33    78 1
    81    33    79 1
    82    34    80 1
@<TRIPOS>SUBSTRUCTURE
     1 VDB         1 TEMP              0 ****  ****    0 ROOT
