@<TRIPOS>MOLECULE
VDB
   80    82     1     0     0
SMALL
bcc


@<TRIPOS>ATOM
      1 C29         0.9170    0.1640   -0.8540 c3        1 VDB     -0.089600
      2 C26         2.3700    0.3180   -0.4880 c3        1 VDB     -0.087400
      3 C25         2.5790    0.7050    0.9820 c3        1 VDB      0.162800
      4 C27         1.8650    2.0070    1.3650 c3        1 VDB     -0.087400
      5 C28         2.1480    3.1660    0.4480 c3        1 VDB     -0.089600
      6 O3          2.0230   -0.3680    1.7430 oh        1 VDB     -0.604800
      7 C23         4.0850    0.8090    1.2510 c3        1 VDB     -0.049300
      8 S22         4.4790    1.1990    2.9340 ss        1 VDB     -0.327200
      9 C20         5.3430   -0.2700    3.5160 c3        1 VDB      0.083600
     10 C21         4.4070   -1.4400    3.6830 c3        1 VDB     -0.100100
     11 C17         5.9870    0.1440    4.7730 c2        1 VDB     -0.115400
     12 C16         5.4120    0.3250    5.9860 c2        1 VDB     -0.152200
     13 C15         6.4100    0.7840    7.0160 c3        1 VDB     -0.045200
     14 C14         7.5670    1.2780    6.1400 c3        1 VDB     -0.040500
     15 C13         7.4890    0.3650    4.8750 c3        1 VDB     -0.009800
     16 C18         8.1320   -0.9980    5.1030 c3        1 VDB     -0.084100
     17 C12         8.2030    1.1050    3.7590 c3        1 VDB     -0.063400
     18 C11         9.6460    1.3810    4.1550 c3        1 VDB     -0.071400
     19 C9          9.8480    1.9650    5.5460 c3        1 VDB     -0.045200
     20 C8          8.9700    1.3770    6.6070 c2        1 VDB     -0.073400
     21 C7          9.3730    1.0350    7.8420 ce        1 VDB     -0.146000
     22 C6         10.7200    1.1760    8.3470 ce        1 VDB     -0.116000
     23 C5         11.2610    0.4450    9.3400 c2        1 VDB     -0.110400
     24 C10        12.6390    0.7440    9.8230 c3        1 VDB     -0.040700
     25 C1         13.4760   -0.5270    9.9220 c3        1 VDB      0.142100
     26 O1         14.7370   -0.1560   10.4540 oh        1 VDB     -0.595800
     27 C4         10.5410   -0.6460   10.0500 c3        1 VDB     -0.040700
     28 C3         11.3840   -1.8930   10.3070 c3        1 VDB      0.142100
     29 O2         11.4530   -2.6300    9.0960 oh        1 VDB     -0.595800
     30 C2         12.7760   -1.5370   10.8470 c3        1 VDB      0.067100
     31 O4         13.6080   -2.7000   10.8480 os        1 VDB     -0.452600
     32 C30        13.4580   -3.5070   12.0170 c3        1 VDB      0.084400
     33 C31        14.4400   -4.6640   11.8590 c3        1 VDB      0.130400
     34 O5         15.7790   -4.2190   11.9040 oh        1 VDB     -0.593800
     35 H29         0.8240   -0.2410   -1.8900 hc        1 VDB      0.037033
     36 H29A        0.3880    1.1470   -0.8100 hc        1 VDB      0.037033
     37 H29B        0.4130   -0.5390   -0.1460 hc        1 VDB      0.037033
     38 H26         2.8990   -0.6550   -0.6690 hc        1 VDB      0.050700
     39 H26A        2.8530    1.0990   -1.1290 hc        1 VDB      0.050700
     40 H27         0.7610    1.8000    1.3810 hc        1 VDB      0.050700
     41 H27A        2.1730    2.2750    2.4140 hc        1 VDB      0.050700
     42 H28         1.7490    2.9730   -0.5770 hc        1 VDB      0.037033
     43 H28A        3.2450    3.3600    0.3690 hc        1 VDB      0.037033
     44 H28B        1.6590    4.0890    0.8450 hc        1 VDB      0.037033
     45 HO3         2.1920   -0.1610    2.6740 ho        1 VDB      0.410000
     46 H23         4.5730   -0.1520    0.9570 h1        1 VDB      0.076700
     47 H23A        4.5070    1.6280    0.6190 h1        1 VDB      0.076700
     48 H20         6.1290   -0.5350    2.7580 h1        1 VDB      0.073700
     49 H21         3.6150   -1.2110    4.4380 hc        1 VDB      0.048700
     50 H21A        3.9100   -1.6830    2.7110 hc        1 VDB      0.048700
     51 H21B        4.9740   -2.3390    4.0290 hc        1 VDB      0.048700
     52 H16         4.3610    0.1890    6.2430 ha        1 VDB      0.142000
     53 H15         6.0000    1.5980    7.6610 hc        1 VDB      0.055200
     54 H15A        6.7150   -0.0690    7.6720 hc        1 VDB      0.055200
     55 H14         7.2770    2.3240    5.8120 hc        1 VDB      0.063700
     56 H18         7.5840   -1.5580    5.8980 hc        1 VDB      0.040367
     57 H18A        8.1010   -1.5920    4.1590 hc        1 VDB      0.040367
     58 H18B        9.1950   -0.8850    5.4260 hc        1 VDB      0.040367
     59 H12         7.6700    2.0670    3.5430 hc        1 VDB      0.047200
     60 H12A        8.1910    0.4940    2.8190 hc        1 VDB      0.047200
     61 H11        10.2270    0.4230    4.0800 hc        1 VDB      0.041200
     62 H11A       10.0900    2.0920    3.4090 hc        1 VDB      0.041200
     63 H9          9.6370    3.0700    5.5110 hc        1 VDB      0.048700
     64 H9A        10.9300    1.8410    5.8190 hc        1 VDB      0.048700
     65 H7          8.6300    0.6270    8.5510 ha        1 VDB      0.124000
     66 H6         11.3280    1.9700    7.8750 ha        1 VDB      0.124000
     67 H10        12.5830    1.2270   10.8370 hc        1 VDB      0.063200
     68 H10A       13.1660    1.4630    9.1420 hc        1 VDB      0.063200
     69 H1         13.6110   -0.9950    8.9070 h1        1 VDB      0.045700
     70 HO1        15.2390   -0.9740   10.5630 ho        1 VDB      0.412000
     71 H4         10.1920   -0.2550   11.0450 hc        1 VDB      0.063200
     72 H4A         9.6380   -0.9680    9.4650 hc        1 VDB      0.063200
     73 H3         10.8580   -2.5380   11.0710 h1        1 VDB      0.045700
     74 HO2        12.2200   -3.2140    9.1610 ho        1 VDB      0.412000
     75 H2         12.6910   -1.1130   11.8840 h1        1 VDB      0.066700
     76 H30        13.7030   -2.8990   12.9270 h1        1 VDB      0.045700
     77 H30A       12.4060   -3.8870   12.0820 h1        1 VDB      0.045700
     78 H31        14.3370   -5.3680   12.7270 h1        1 VDB      0.056200
     79 H31A       14.2430   -5.2070   10.8970 h1        1 VDB      0.056200
     80 HO5        15.8870   -3.5780   11.1900 ho        1 VDB      0.409000
@<TRIPOS>BOND
     1    1    2 1   
     2    1   35 1   
     3    1   36 1   
     4    1   37 1   
     5    2    3 1   
     6    2   38 1   
     7    2   39 1   
     8    3    4 1   
     9    3    6 1   
    10    3    7 1   
    11    4    5 1   
    12    4   40 1   
    13    4   41 1   
    14    5   42 1   
    15    5   43 1   
    16    5   44 1   
    17    6   45 1   
    18    7    8 1   
    19    7   46 1   
    20    7   47 1   
    21    8    9 1   
    22    9   10 1   
    23    9   11 1   
    24    9   48 1   
    25   10   49 1   
    26   10   50 1   
    27   10   51 1   
    28   11   12 2   
    29   11   15 1   
    30   12   13 1   
    31   12   52 1   
    32   13   14 1   
    33   13   53 1   
    34   13   54 1   
    35   14   15 1   
    36   14   20 1   
    37   14   55 1   
    38   15   16 1   
    39   15   17 1   
    40   16   56 1   
    41   16   57 1   
    42   16   58 1   
    43   17   18 1   
    44   17   59 1   
    45   17   60 1   
    46   18   19 1   
    47   18   61 1   
    48   18   62 1   
    49   19   20 1   
    50   19   63 1   
    51   19   64 1   
    52   20   21 2   
    53   21   22 1   
    54   21   65 1   
    55   22   23 2   
    56   22   66 1   
    57   23   24 1   
    58   23   27 1   
    59   24   25 1   
    60   24   67 1   
    61   24   68 1   
    62   25   26 1   
    63   25   30 1   
    64   25   69 1   
    65   26   70 1   
    66   27   28 1   
    67   27   71 1   
    68   27   72 1   
    69   28   29 1   
    70   28   30 1   
    71   28   73 1   
    72   29   74 1   
    73   30   31 1   
    74   30   75 1   
    75   31   32 1   
    76   32   33 1   
    77   32   76 1   
    78   32   77 1   
    79   33   34 1   
    80   33   78 1   
    81   33   79 1   
    82   34   80 1   
@<TRIPOS>SUBSTRUCTURE
     1 VDB         1 TEMP              0 ****  ****    0 ROOT
