@<TRIPOS>MOLECULE
molecule
   48    49     1     0     0
SMALL
bcc


@<TRIPOS>ATOM
      1 O7           0.0000     0.0000     0.0000 oh         1 VDM      -0.608800
      2 C7           1.4150     0.0000     0.0000 c3         1 VDM       0.183600
      3 C5           1.9180     0.0000     1.4170 c2         1 VDM      -0.097400
      4 C6           2.6890     1.0030     1.8750 c2         1 VDM      -0.208200
      5 C4           1.4940    -1.1540     2.2980 c3         1 VDM       0.176300
      6 O4           1.7860    -2.3990     1.6600 oh         1 VDM      -0.606800
      7 C3           2.1790    -1.1890     3.6760 c3         1 VDM       0.113100
      8 O3           1.3480    -1.9300     4.5750 oh         1 VDM      -0.611800
      9 C2           2.3590     0.2180     4.2420 c3         1 VDM       0.153100
     10 O2           2.9920     0.1380     5.5200 oh         1 VDM      -0.578800
     11 C1           3.1820     1.1080     3.2920 c3         1 VDM       0.195700
     12 N1'          4.6110     0.7750     3.3340 n7         1 VDM      -0.777200
     13 C1'          5.3810     1.6990     2.4940 c3         1 VDM       0.159500
     14 C2'          6.8700     1.3230     2.4800 c3         1 VDM       0.129100
     15 O2'          7.0300    -0.0360     2.0740 oh         1 VDM      -0.591800
     16 C6'          5.2070     3.1350     2.9990 c3         1 VDM      -0.073400
     17 C5'          5.8460     3.3560     4.3800 c3         1 VDM      -0.066700
     18 C7'          5.6820     4.8180     4.8090 c3         1 VDM       0.149400
     19 O7'          6.2720     4.9750     6.0840 oh         1 VDM      -0.580800
     20 C4'          7.3290     2.9410     4.3820 c3         1 VDM       0.142100
     21 O4'          7.8110     3.0010     5.7250 oh         1 VDM      -0.568800
     22 C3'          7.5440     1.5220     3.8400 c3         1 VDM       0.115100
     23 O3'          8.9480     1.3040     3.6610 oh         1 VDM      -0.596800
     24 H7          -0.3140     0.2500    -0.8530 ho         1 VDM       0.407000
     25 H7C1         1.7760     0.8840    -0.5110 h1         1 VDM       0.032700
     26 H7C2         1.7760    -0.8840    -0.5110 h1         1 VDM       0.032700
     27 H6           2.9710     1.7850     1.1800 ha         1 VDM       0.126000
     28 H4           0.4240    -1.0870     2.4520 h1         1 VDM       0.068700
     29 H1           3.0630     2.1370     3.6110 h1         1 VDM       0.071700
     30 HA           1.0390    -2.9700     1.7270 ho         1 VDM       0.411000
     31 H3           3.1450    -1.6700     3.5880 h1         1 VDM       0.069700
     32 HB           1.8090    -2.6980     4.8690 ho         1 VDM       0.413000
     33 H2           1.3800     0.6650     4.3660 h1         1 VDM       0.045700
     34 HC           2.3850     0.4090     6.1890 ho         1 VDM       0.404000
     35 H1'          4.7440    -0.1620     3.0080 hn         1 VDM       0.380800
     36 HD           5.0040     1.6450     1.4790 h1         1 VDM       0.023700
     37 H2'          7.3710     1.9580     1.7600 h1         1 VDM       0.020700
     38 H6'1         4.1490     3.3560     3.0660 hc         1 VDM       0.043700
     39 H6'2         5.6670     3.8120     2.2900 hc         1 VDM       0.043700
     40 HE           7.5030    -0.0670     1.2590 ho         1 VDM       0.403000
     41 H3'          7.1490     0.8020     4.5470 h1         1 VDM       0.129700
     42 H5'          5.3240     2.7310     5.0930 hc         1 VDM       0.098700
     43 H7'1         6.1760     5.4660     4.0950 h1         1 VDM       0.013700
     44 H7'2         4.6290     5.0670     4.8600 h1         1 VDM       0.013700
     45 H4'          7.8890     3.6380     3.7700 h1         1 VDM       0.014700
     46 H7'          5.9550     5.7690     6.4810 ho         1 VDM       0.393000
     47 HF           8.7340     3.1930     5.7190 ho         1 VDM       0.401000
     48 HG           9.2900     1.9390     3.0540 ho         1 VDM       0.386000
@<TRIPOS>BOND
     1     1     2 1
     2     1    24 1
     3     2     3 1
     4     2    25 1
     5     2    26 1
     6     3     4 2
     7     3     5 1
     8     4    11 1
     9     4    27 1
    10     5     6 1
    11     5     7 1
    12     5    28 1
    13     6    30 1
    14     7     8 1
    15     7     9 1
    16     7    31 1
    17     8    32 1
    18     9    10 1
    19     9    11 1
    20     9    33 1
    21    10    34 1
    22    11    12 1
    23    11    29 1
    24    12    13 1
    25    12    35 1
    26    13    36 1
    27    13    14 1
    28    13    16 1
    29    14    37 1
    30    14    15 1
    31    14    22 1
    32    15    40 1
    33    16    38 1
    34    16    39 1
    35    16    17 1
    36    17    42 1
    37    17    18 1
    38    17    20 1
    39    18    43 1
    40    18    44 1
    41    18    19 1
    42    19    46 1
    43    20    45 1
    44    20    21 1
    45    20    22 1
    46    21    47 1
    47    22    41 1
    48    22    23 1
    49    23    48 1
@<TRIPOS>SUBSTRUCTURE
     1 VDM         1 TEMP              0 ****  ****    0 ROOT
