@<TRIPOS>MOLECULE
VDN
   66    69     1     0     0
SMALL
bcc


@<TRIPOS>ATOM
      1 C1          0.1590    0.5180    0.6970 c3        1 VDN     -0.104100
      2 C2          1.6060    0.5320    0.2650 c3        1 VDN      0.129400
      3 O3          2.3750    0.4280    1.4780 os        1 VDN     -0.318900
      4 C4          3.7260    0.2740    1.3360 ca        1 VDN      0.232100
      5 C5          4.4220    0.4320    0.1260 ca        1 VDN     -0.241000
      6 C6          5.8050    0.3060    0.1110 ca        1 VDN      0.040000
      7 C7          6.5280    0.0260    1.2780 ca        1 VDN     -0.418500
      8 C8          5.8260   -0.1330    2.4790 ca        1 VDN      0.055000
      9 C9          4.4410   -0.0180    2.5220 ca        1 VDN     -0.220900
     10 S10         8.2160   -0.0740    1.2450 sy        1 VDN      1.514200
     11 O11         8.6640    0.6110    0.0920 o         1 VDN     -0.653800
     12 O12         8.6980    0.3860    2.4900 o         1 VDN     -0.653800
     13 C13        11.3390   -6.0200    1.8740 c3        1 VDN     -0.096100
     14 N14         8.5050   -1.6620    1.0910 n3        1 VDN     -0.819500
     15 C15         8.6160   -2.5520    2.2190 c3        1 VDN      0.221800
     16 C16         9.8660   -3.4570    2.1680 c3        1 VDN      0.156800
     17 N17        10.0340   -4.1260    0.8870 n3        1 VDN     -0.728600
     18 C18         9.9420   -3.2070   -0.2390 c3        1 VDN      0.156800
     19 C19         8.6860   -2.3110   -0.1820 c3        1 VDN      0.221800
     20 C20        11.2480   -4.9300    0.8190 c3        1 VDN      0.169800
     21 C21         3.7110   -0.2400    3.7970 cc        1 VDN      0.680800
     22 N22         2.9740   -1.3040    3.9620 nd        1 VDN     -0.632100
     23 C23         2.2530   -1.4770    5.1910 c         1 VDN      0.740100
     24 C24         2.4310   -0.4340    6.2110 cc        1 VDN     -0.334200
     25 N25         3.2370    0.7060    5.9180 na        1 VDN     -0.059700
     26 N26         4.0130    0.7770    4.7970 na        1 VDN     -0.620500
     27 O27         1.5270   -2.4640    5.3580 o         1 VDN     -0.503100
     28 C28         1.9800   -0.2540    7.5360 cd        1 VDN      0.421600
     29 N29         2.5090    0.9270    8.0570 nd        1 VDN     -0.676000
     30 C30         3.2890    1.4860    7.0960 cc        1 VDN      0.465800
     31 C31         1.0820   -1.1560    8.2790 c3        1 VDN     -0.137400
     32 C32         4.0640    2.7560    7.2080 c3        1 VDN     -0.109700
     33 C33         5.5360    2.4820    7.4490 c3        1 VDN     -0.084400
     34 C34         6.3060    3.7700    7.5880 c3        1 VDN     -0.095100
     35 H11        -0.0580    1.3820    1.3700 hc        1 VDN      0.056700
     36 H12        -0.0750   -0.4240    1.2480 hc        1 VDN      0.056700
     37 H13        -0.4900    0.5870   -0.2080 hc        1 VDN      0.056700
     38 H21         1.8430   -0.3380   -0.4010 h1        1 VDN      0.047200
     39 H22         1.8730    1.4920   -0.2500 h1        1 VDN      0.047200
     40 H5          3.8830    0.6560   -0.8060 ha        1 VDN      0.152000
     41 H6          6.3540    0.4480   -0.8380 ha        1 VDN      0.161000
     42 H8          6.3850   -0.3430    3.4100 ha        1 VDN      0.167000
     43 H131       11.5100   -5.5860    2.8880 hc        1 VDN      0.040700
     44 H132       12.2000   -6.6860    1.6260 hc        1 VDN      0.040700
     45 H133       10.4080   -6.6350    1.9030 hc        1 VDN      0.040700
     46 H151        8.6700   -1.9440    3.1680 h1        1 VDN      0.058950
     47 H152        7.6990   -3.2090    2.2640 h1        1 VDN      0.058950
     48 H161        9.7360   -4.2520    2.9550 h1        1 VDN      0.042200
     49 H162       10.7720   -2.8410    2.4410 h1        1 VDN      0.042200
     50 H181       10.8550   -2.5460   -0.3170 h1        1 VDN      0.042200
     51 H182        9.8770   -3.8210   -1.1800 h1        1 VDN      0.042200
     52 H191        8.7860   -1.5270   -0.9880 h1        1 VDN      0.058950
     53 H192        7.7810   -2.9460   -0.4070 h1        1 VDN      0.058950
     54 H201       11.2580   -5.4180   -0.1980 h1        1 VDN      0.031200
     55 H202       12.1740   -4.2840    0.8920 h1        1 VDN      0.031200
     56 H26         3.9640    1.7110    4.4020 hn        1 VDN      0.414800
     57 H311        0.1340   -0.6250    8.5490 hc        1 VDN      0.064033
     58 H312        1.5710   -1.5030    9.2230 hc        1 VDN      0.064033
     59 H313        0.8340   -2.0460    7.6460 hc        1 VDN      0.064033
     60 H321        3.6480    3.3610    8.0590 hc        1 VDN      0.066700
     61 H322        3.9350    3.3610    6.2710 hc        1 VDN      0.066700
     62 H331        5.9560    1.8800    6.6010 hc        1 VDN      0.055700
     63 H332        5.6520    1.8680    8.3820 hc        1 VDN      0.055700
     64 H341        5.9220    4.3700    8.4490 hc        1 VDN      0.037033
     65 H342        7.3880    3.5520    7.7640 hc        1 VDN      0.037033
     66 H343        6.2170    4.3870    6.6620 hc        1 VDN      0.037033
@<TRIPOS>BOND
     1    1    2 1
     2    1   35 1
     3    1   36 1
     4    1   37 1
     5    2    3 1
     6    2   38 1
     7    2   39 1
     8    3    4 1
     9    4    5 ar
    10    4    9 ar
    11    5    6 ar
    12    5   40 1
    13    6    7 ar
    14    6   41 1
    15    7    8 ar
    16    7   10 1
    17    8    9 ar
    18    8   42 1
    19    9   21 1
    20   10   11 2
    21   10   12 2
    22   10   14 1
    23   13   20 1
    24   13   43 1
    25   13   44 1
    26   13   45 1
    27   14   15 1
    28   14   19 1
    29   15   16 1
    30   15   46 1
    31   15   47 1
    32   16   17 1
    33   16   48 1
    34   16   49 1
    35   17   18 1
    36   17   20 1
    37   18   19 1
    38   18   50 1
    39   18   51 1
    40   19   52 1
    41   19   53 1
    42   20   54 1
    43   20   55 1
    44   21   22 2
    45   21   26 1
    46   22   23 1
    47   23   24 1
    48   23   27 2
    49   24   25 1
    50   24   28 2
    51   25   26 1
    52   25   30 1
    53   26   56 1
    54   28   29 1
    55   28   31 1
    56   29   30 2
    57   30   32 1
    58   31   57 1
    59   31   58 1
    60   31   59 1
    61   32   33 1
    62   32   60 1
    63   32   61 1
    64   33   34 1
    65   33   62 1
    66   33   63 1
    67   34   64 1
    68   34   65 1
    69   34   66 1
@<TRIPOS>SUBSTRUCTURE
     1 VDN         1 TEMP              0 ****  ****    0 ROOT
