@<TRIPOS>MOLECULE
VDO
   51    52     1     0     0
SMALL
bcc


@<TRIPOS>ATOM
      1 OAY          0.0000     0.0000     0.0000 o          1 VDO      -0.759833
      2 PBA          1.6110     0.0000     0.0000 p5         1 VDO       0.668900
      3 OAZ          2.1480     0.0000     1.5180 o          1 VDO      -0.759833
      4 OAX          2.1040    -1.2090    -0.6980 o          1 VDO      -0.759833
      5 OAW          2.1470     1.3150    -0.7590 os         1 VDO      -0.457200
      6 CAG          1.9290     1.5520    -2.1510 c3         1 VDO       0.295400
      7 CAF          2.5680     2.8850    -2.5460 c3         1 VDO      -0.090700
      8 CAV          2.4430     3.0820    -4.0590 c3         1 VDO      -0.019400
      9 CAE          1.8510     4.0280    -1.8230 c3         1 VDO       0.200100
     10 OAU          1.9680     3.8450    -0.4110 oh         1 VDO      -0.510800
     11 CAC          2.4900     5.3610    -2.2190 c3         1 VDO       0.122100
     12 OAP          1.8210     6.4290    -1.5440 oh         1 VDO      -0.607800
     13 CAB          2.3650     5.5580    -3.7310 c3         1 VDO       0.171100
     14 OAO          2.9610     6.8030    -4.1010 oh         1 VDO      -0.604800
     15 CAA          3.0810     4.4150    -4.4540 c3         1 VDO       0.101500
     16 NAN          4.5010     4.4090    -4.0770 n7         1 VDO      -0.550200
     17 CAM          5.3230     3.7990    -5.1300 c3         1 VDO       0.150700
     18 CAL          5.7000     4.8450    -6.1370 c2         1 VDO      -0.100200
     19 CAJ          6.5810     3.1930    -4.5030 c3         1 VDO       0.191100
     20 OAT          7.2080     4.1580    -3.6550 oh         1 VDO      -0.562800
     21 CAI          7.5420     2.7960    -5.6300 c3         1 VDO       0.141100
     22 OAS          6.8560     1.9790    -6.5810 oh         1 VDO      -0.569800
     23 CAH          8.0400     4.0720    -6.3140 c3         1 VDO       0.249300
     24 OAR          8.9270     4.7650    -5.4340 oh         1 VDO      -0.549800
     25 CAK          6.8790     4.9610    -6.6550 c2         1 VDO      -0.197400
     26 CAD          7.1040     6.0580    -7.6640 c3         1 VDO       0.283600
     27 OAQ          5.8900     6.7880    -7.8510 oh         1 VDO      -0.584800
     28 HAG1         2.3760     0.7520    -2.7280 h1         1 VDO      -0.035800
     29 HAG2         0.8650     1.5890    -2.3480 h1         1 VDO      -0.035800
     30 HAF          3.6150     2.8850    -2.2690 hc         1 VDO       0.050700
     31 HAV1         2.9520     2.2730    -4.5700 hc         1 VDO       0.012200
     32 HAV2         1.3950     3.0880    -4.3350 hc         1 VDO       0.012200
     33 HAE          0.8060     4.0330    -2.1060 h1         1 VDO      -0.002300
     34 HAA          2.9880     4.5540    -5.5240 h1         1 VDO      -0.005300
     35 HAU          1.2180     4.2230     0.0180 ho         1 VDO       0.368000
     36 HAC          3.5370     5.3540    -1.9430 h1         1 VDO       0.033700
     37 HAP          2.4350     6.8860    -0.9940 ho         1 VDO       0.383000
     38 HAB          1.3180     5.5570    -4.0080 h1         1 VDO       0.007700
     39 HAO          2.2890     7.4020    -4.3810 ho         1 VDO       0.380000
     40 HAN          4.8070     5.3490    -3.9170 hn         1 VDO       0.276800
     41 HAM          4.7590     3.0170    -5.6230 h1         1 VDO       0.063700
     42 HAL          4.9370     5.5470    -6.4500 ha         1 VDO       0.124000
     43 HAJ          6.3130     2.3150    -3.9290 h1         1 VDO       0.034700
     44 HAT          7.4990     3.7370    -2.8630 ho         1 VDO       0.388000
     45 HAI          8.3840     2.2540    -5.2160 h1         1 VDO      -0.000300
     46 HAS          7.3540     1.1940    -6.7390 ho         1 VDO       0.380000
     47 HAH          8.5650     3.8070    -7.2240 h1         1 VDO      -0.018300
     48 HAR          9.8010     4.7440    -5.7870 ho         1 VDO       0.360000
     49 HAD1         7.8770     6.7270    -7.3050 h1         1 VDO      -0.021300
     50 HAD2         7.4130     5.6230    -8.6070 h1         1 VDO      -0.021300
     51 HAQ          6.0100     7.4290    -8.5320 ho         1 VDO       0.375000
@<TRIPOS>BOND
     1     1     2 1   
     2     2     3 1   
     3     2     4 1   
     4     2     5 1   
     5     5     6 1   
     6     6     7 1   
     7     6    28 1   
     8     6    29 1   
     9     7     8 1   
    10     7     9 1   
    11     7    30 1   
    12     8    15 1   
    13     8    31 1   
    14     8    32 1   
    15     9    10 1   
    16     9    11 1   
    17     9    33 1   
    18    10    35 1   
    19    11    12 1   
    20    11    13 1   
    21    11    36 1   
    22    12    37 1   
    23    13    14 1   
    24    13    15 1   
    25    13    38 1   
    26    14    39 1   
    27    15    16 1   
    28    15    34 1   
    29    16    17 1   
    30    16    40 1   
    31    17    18 1   
    32    17    19 1   
    33    17    41 1   
    34    18    25 2   
    35    18    42 1   
    36    19    20 1   
    37    19    21 1   
    38    19    43 1   
    39    20    44 1   
    40    21    22 1   
    41    21    23 1   
    42    21    45 1   
    43    22    46 1   
    44    23    24 1   
    45    23    25 1   
    46    23    47 1   
    47    24    48 1   
    48    25    26 1   
    49    26    27 1   
    50    26    49 1   
    51    26    50 1   
    52    27    51 1   
@<TRIPOS>SUBSTRUCTURE
     1 VDO         1 TEMP              0 ****  ****    0 ROOT
