@<TRIPOS>MOLECULE
VDX
   74    76     1     0     0
SMALL
bcc


@<TRIPOS>ATOM
      1 O2         -0.3080    0.4410    0.4600 oh        1 VDX     -0.599800
      2 O3         13.8660   -4.6030   -2.6780 oh        1 VDX     -0.597800
      3 C1          3.0480    1.7310   -0.6750 c3        1 VDX      0.186300
      4 C2          1.5410    1.7340   -0.4350 c3        1 VDX     -0.146400
      5 C3          1.0820    0.4090    0.1600 c3        1 VDX      0.146100
      6 C4          1.8000    0.1320    1.4790 c3        1 VDX     -0.035200
      7 C5          3.2810    0.1620    1.2950 ce        1 VDX     -0.074200
      8 C6          4.0470   -0.8230    1.8090 cf        1 VDX     -0.108000
      9 C7          5.4810   -0.9170    1.6650 cf        1 VDX     -0.150000
     10 C8          6.3090   -1.5930    2.4810 c2        1 VDX     -0.081400
     11 C9          5.8940   -2.2830    3.7400 c3        1 VDX     -0.044200
     12 C10         3.8070    1.3100    0.5590 ce        1 VDX     -0.069200
     13 C11         6.4940   -3.6700    3.9020 c3        1 VDX     -0.073400
     14 C12         7.9760   -3.7480    3.5830 c3        1 VDX     -0.066400
     15 C13         8.2680   -3.1380    2.2210 c3        1 VDX     -0.040000
     16 C14         7.7790   -1.6620    2.2750 c3        1 VDX     -0.036500
     17 C15         8.4330   -1.0170    1.0630 c3        1 VDX     -0.074400
     18 C16         9.7780   -1.7320    0.9280 c3        1 VDX     -0.079400
     19 C17         9.7650   -2.9470    1.8790 c3        1 VDX     -0.053700
     20 C18         7.5580   -3.9080    1.1210 c3        1 VDX     -0.083100
     21 C19         4.8920    1.9920    0.9470 c2        1 VDX     -0.192000
     22 C20        10.4900   -4.1470    1.2800 c3        1 VDX     -0.055700
     23 C21        10.4470   -5.3480    2.2050 c3        1 VDX     -0.091100
     24 C22        11.9460   -3.7910    0.9810 c3        1 VDX     -0.079400
     25 C23        12.5330   -4.6740   -0.1000 c3        1 VDX     -0.079400
     26 C24        13.9930   -4.3490   -0.3280 c3        1 VDX     -0.064400
     27 C25        14.5850   -5.0790   -1.5380 c3        1 VDX      0.147800
     28 C26        16.0620   -4.7200   -1.6780 c3        1 VDX     -0.123100
     29 C27        14.4300   -6.5900   -1.4190 c3        1 VDX     -0.123100
     30 O1          3.4090    0.8330   -1.7210 oh        1 VDX     -0.588800
     31 HO2        -0.7670    0.5990   -0.3730 ho        1 VDX      0.398000
     32 HO3        14.2310   -5.0590   -3.4450 ho        1 VDX      0.397000
     33 H11         3.3650    2.7730   -0.9780 h1        1 VDX      0.034700
     34 H21         1.0060    1.9190   -1.4020 hc        1 VDX      0.052700
     35 H22         1.2800    2.5680    0.2670 hc        1 VDX      0.052700
     36 H31         1.2930   -0.4220   -0.5720 h1        1 VDX      0.048700
     37 H41         1.4590   -0.8610    1.8740 hc        1 VDX      0.061700
     38 H42         1.5000    0.9120    2.2300 hc        1 VDX      0.061700
     39 H61         3.5550   -1.6480    2.3570 ha        1 VDX      0.124000
     40 H71         5.8980   -0.3860    0.7880 ha        1 VDX      0.137000
     41 H91         6.2230   -1.6390    4.6030 hc        1 VDX      0.046700
     42 H92         4.7770   -2.3680    3.8020 hc        1 VDX      0.046700
     43 H111        5.9400   -4.3860    3.2390 hc        1 VDX      0.039700
     44 H112        6.3320   -4.0070    4.9600 hc        1 VDX      0.039700
     45 H121        8.2990   -4.8210    3.6080 hc        1 VDX      0.041700
     46 H122        8.5630   -3.2040    4.3690 hc        1 VDX      0.041700
     47 H141        8.2460   -1.1880    3.1920 hc        1 VDX      0.052700
     48 H151        8.5650    0.0830    1.2080 hc        1 VDX      0.046200
     49 H152        7.8150   -1.1700    0.1430 hc        1 VDX      0.046200
     50 H161       10.6160   -1.0430    1.1980 hc        1 VDX      0.043200
     51 H162        9.9340   -2.0620   -0.1290 hc        1 VDX      0.043200
     52 H171       10.2980   -2.6660    2.8300 hc        1 VDX      0.044700
     53 H181        7.7930   -4.9970    1.1920 hc        1 VDX      0.038033
     54 H182        7.8790   -3.5370    0.1170 hc        1 VDX      0.038033
     55 H183        6.4510   -3.7770    1.2020 hc        1 VDX      0.038033
     56 H191        5.4530    1.7300    1.8540 ha        1 VDX      0.120000
     57 H192        5.2790    2.8510    0.3830 ha        1 VDX      0.120000
     58 H201        9.9860   -4.4220    0.3110 hc        1 VDX      0.053700
     59 H211       11.1940   -6.1150    1.8840 hc        1 VDX      0.033367
     60 H212        9.4380   -5.8240    2.1900 hc        1 VDX      0.033367
     61 H213       10.6840   -5.0470    3.2550 hc        1 VDX      0.033367
     62 H221       12.0230   -2.7220    0.6500 hc        1 VDX      0.040200
     63 H222       12.5510   -3.8870    1.9210 hc        1 VDX      0.040200
     64 H231       12.4270   -5.7530    0.1890 hc        1 VDX      0.048700
     65 H232       11.9700   -4.5290   -1.0600 hc        1 VDX      0.048700
     66 H241       14.5950   -4.6260    0.5760 hc        1 VDX      0.047200
     67 H242       14.1070   -3.2460   -0.4960 hc        1 VDX      0.047200
     68 H261       16.6230   -5.0530   -0.7740 hc        1 VDX      0.042200
     69 H262       16.4980   -5.2170   -2.5770 hc        1 VDX      0.042200
     70 H263       16.1760   -3.6160   -1.7930 hc        1 VDX      0.042200
     71 H271       13.3540   -6.8720   -1.5120 hc        1 VDX      0.042200
     72 H272       15.0020   -7.1040   -2.2280 hc        1 VDX      0.042200
     73 H273       14.8130   -6.9370   -0.4310 hc        1 VDX      0.042200
     74 HO1         2.8730    1.0720   -2.4860 ho        1 VDX      0.396000
@<TRIPOS>BOND
     1    1    5 1   
     2    1   31 1   
     3    2   27 1   
     4    2   32 1   
     5    3    4 1   
     6    3   12 1   
     7    3   30 1   
     8    3   33 1   
     9    4    5 1   
    10    4   34 1   
    11    4   35 1   
    12    5    6 1   
    13    5   36 1   
    14    6    7 1   
    15    6   37 1   
    16    6   38 1   
    17    7    8 2   
    18    7   12 1   
    19    8    9 1   
    20    8   39 1   
    21    9   10 2   
    22    9   40 1   
    23   10   11 1   
    24   10   16 1   
    25   11   13 1   
    26   11   41 1   
    27   11   42 1   
    28   12   21 2   
    29   13   14 1   
    30   13   43 1   
    31   13   44 1   
    32   14   15 1   
    33   14   45 1   
    34   14   46 1   
    35   15   16 1   
    36   15   19 1   
    37   15   20 1   
    38   16   17 1   
    39   16   47 1   
    40   17   18 1   
    41   17   48 1   
    42   17   49 1   
    43   18   19 1   
    44   18   50 1   
    45   18   51 1   
    46   19   22 1   
    47   19   52 1   
    48   20   53 1   
    49   20   54 1   
    50   20   55 1   
    51   21   56 1   
    52   21   57 1   
    53   22   23 1   
    54   22   24 1   
    55   22   58 1   
    56   23   59 1   
    57   23   60 1   
    58   23   61 1   
    59   24   25 1   
    60   24   62 1   
    61   24   63 1   
    62   25   26 1   
    63   25   64 1   
    64   25   65 1   
    65   26   27 1   
    66   26   66 1   
    67   26   67 1   
    68   27   28 1   
    69   27   29 1   
    70   28   68 1   
    71   28   69 1   
    72   28   70 1   
    73   29   71 1   
    74   29   72 1   
    75   29   73 1   
    76   30   74 1   
@<TRIPOS>SUBSTRUCTURE
     1 VDX         1 TEMP              0 ****  ****    0 ROOT
