@<TRIPOS>MOLECULE
molecule
   74    76     1     0     0
SMALL
bcc


@<TRIPOS>ATOM
      1 O2           0.0000     0.0000     0.0000 oh         1 VDX      -0.610800
      2 O3          13.4060    -5.0010    -2.8550 oh         1 VDX      -0.603800
      3 C1           3.4590     1.1790    -0.8720 c3         1 VDX       0.189300
      4 C2           1.9360     1.2460    -0.7280 c3         1 VDX      -0.099400
      5 C3           1.4290     0.0000     0.0000 c3         1 VDX       0.152100
      6 C4           1.9390     0.0000     1.4440 c3         1 VDX      -0.043200
      7 C5           3.4530     0.0570     1.4160 ce         1 VDX      -0.080200
      8 C6           4.2060    -0.7600     2.1810 cf         1 VDX      -0.120000
      9 C7           5.6660    -0.6750     2.1260 cf         1 VDX      -0.159000
     10 C8           6.4100    -1.4820     2.8820 c2         1 VDX      -0.094400
     11 C9           5.7990    -2.5120     3.8210 c3         1 VDX      -0.044200
     12 C10          4.0640     1.0560     0.5160 ce         1 VDX      -0.087200
     13 C11          6.4330    -3.8850     3.6030 c3         1 VDX      -0.077400
     14 C12          7.9670    -3.8070     3.5820 c3         1 VDX      -0.064400
     15 C13          8.3750    -2.8710     2.4750 c3         1 VDX      -0.060000
     16 C14          7.9090    -1.4400     2.8690 c3         1 VDX      -0.035500
     17 C15          8.5630    -0.5990     1.7700 c3         1 VDX      -0.078400
     18 C16          9.9790    -1.2280     1.6530 c3         1 VDX      -0.081400
     19 C17          9.8540    -2.6840     2.1750 c3         1 VDX      -0.053700
     20 C18          7.6470    -3.2620     1.1880 c3         1 VDX      -0.093100
     21 C19          5.0980     1.8050     0.8960 c2         1 VDX      -0.209000
     22 C20         10.3090    -3.6740     1.1020 c3         1 VDX      -0.069700
     23 C21         10.1110    -5.1030     1.6110 c3         1 VDX      -0.097100
     24 C22         11.7890    -3.4440     0.7900 c3         1 VDX      -0.081400
     25 C23         12.2440    -4.4350    -0.2820 c3         1 VDX      -0.083400
     26 C24         13.7240    -4.2060    -0.5950 c3         1 VDX      -0.064400
     27 C25         14.1790    -5.1960    -1.6680 c3         1 VDX       0.147800
     28 C26         15.6580    -4.9670    -1.9800 c3         1 VDX      -0.121100
     29 C27         13.9810    -6.6250    -1.1590 c3         1 VDX      -0.121100
     30 O1           3.8190     0.0450    -1.6620 oh         1 VDX      -0.597800
     31 HO2         -0.3140    -0.7740    -0.4380 ho         1 VDX       0.402000
     32 HO3         13.8180    -5.4480    -3.5750 ho         1 VDX       0.400000
     33 H11          3.8180     2.0860    -1.3440 h1         1 VDX       0.036700
     34 H21          1.4840     1.2950    -1.7110 hc         1 VDX       0.056700
     35 H22          1.6680     2.1280    -0.1590 hc         1 VDX       0.056700
     36 H31          1.7940    -0.8840    -0.5080 h1         1 VDX       0.053700
     37 H41          1.5520     0.8670     1.9660 hc         1 VDX       0.057700
     38 H42          1.6180    -0.9070     1.9420 hc         1 VDX       0.057700
     39 H61          3.7290    -1.4800     2.8360 ha         1 VDX       0.134000
     40 H71          6.1420     0.0440     1.4710 ha         1 VDX       0.146000
     41 H91          4.7340    -2.5780     3.6320 hc         1 VDX       0.048700
     42 H92          5.9660    -2.2020     4.8460 hc         1 VDX       0.048700
     43 H111         6.0880    -4.2850     2.6570 hc         1 VDX       0.043200
     44 H112         6.1250    -4.5450     4.4050 hc         1 VDX       0.043200
     45 H121         8.3800    -4.7920     3.3980 hc         1 VDX       0.044200
     46 H122         8.3260    -3.4260     4.5310 hc         1 VDX       0.044200
     47 H141         8.2960    -1.1680     3.8430 hc         1 VDX       0.064700
     48 H151         8.0210    -0.7000     0.8370 hc         1 VDX       0.047700
     49 H152         8.6300     0.4390     2.0730 hc         1 VDX       0.047700
     50 H161        10.6830    -0.6750     2.2630 hc         1 VDX       0.044200
     51 H162        10.2990    -1.2320     0.6180 hc         1 VDX       0.044200
     52 H171        10.4370    -2.8070     3.0800 hc         1 VDX       0.052700
     53 H181         7.6940    -4.3370     1.0580 hc         1 VDX       0.041033
     54 H182         8.1190    -2.7750     0.3430 hc         1 VDX       0.041033
     55 H183         6.6110    -2.9520     1.2510 hc         1 VDX       0.041033
     56 H191         5.5260     2.5270     0.2110 ha         1 VDX       0.122000
     57 H192         5.5090     1.6960     1.8930 ha         1 VDX       0.122000
     58 H201         9.7230    -3.5270     0.2030 hc         1 VDX       0.061700
     59 H211         9.1430    -5.4690     1.2920 hc         1 VDX       0.036033
     60 H212        10.1610    -5.1100     2.6940 hc         1 VDX       0.036033
     61 H213        10.8890    -5.7400     1.2100 hc         1 VDX       0.036033
     62 H221        11.9290    -2.4320     0.4290 hc         1 VDX       0.040200
     63 H222        12.3750    -3.5910     1.6890 hc         1 VDX       0.040200
     64 H231        12.1040    -5.4470     0.0790 hc         1 VDX       0.052700
     65 H232        11.6580    -4.2880    -1.1810 hc         1 VDX       0.052700
     66 H241        13.8640    -3.1940    -0.9540 hc         1 VDX       0.047700
     67 H242        14.3090    -4.3540     0.3050 hc         1 VDX       0.047700
     68 H261        15.9860    -5.6840    -2.7230 hc         1 VDX       0.041700
     69 H262        15.7960    -3.9630    -2.3620 hc         1 VDX       0.041700
     70 H263        16.2410    -5.0920    -1.0760 hc         1 VDX       0.041700
     71 H271        14.6640    -7.2900    -1.6740 hc         1 VDX       0.041700
     72 H272        12.9610    -6.9380    -1.3490 hc         1 VDX       0.041700
     73 H273        14.1770    -6.6600    -0.0950 hc         1 VDX       0.041700
     74 HO1          4.2280     0.3350    -2.4610 ho         1 VDX       0.401000
@<TRIPOS>BOND
     1     1     5 1
     2     1    31 1
     3     2    27 1
     4     2    32 1
     5     3     4 1
     6     3    12 1
     7     3    30 1
     8     3    33 1
     9     4     5 1
    10     4    34 1
    11     4    35 1
    12     5     6 1
    13     5    36 1
    14     6     7 1
    15     6    37 1
    16     6    38 1
    17     7     8 2
    18     7    12 1
    19     8     9 1
    20     8    39 1
    21     9    10 2
    22     9    40 1
    23    10    11 1
    24    10    16 1
    25    11    13 1
    26    11    41 1
    27    11    42 1
    28    12    21 2
    29    13    14 1
    30    13    43 1
    31    13    44 1
    32    14    15 1
    33    14    45 1
    34    14    46 1
    35    15    16 1
    36    15    19 1
    37    15    20 1
    38    16    17 1
    39    16    47 1
    40    17    18 1
    41    17    48 1
    42    17    49 1
    43    18    19 1
    44    18    50 1
    45    18    51 1
    46    19    22 1
    47    19    52 1
    48    20    53 1
    49    20    54 1
    50    20    55 1
    51    21    56 1
    52    21    57 1
    53    22    23 1
    54    22    24 1
    55    22    58 1
    56    23    59 1
    57    23    60 1
    58    23    61 1
    59    24    25 1
    60    24    62 1
    61    24    63 1
    62    25    26 1
    63    25    64 1
    64    25    65 1
    65    26    27 1
    66    26    66 1
    67    26    67 1
    68    27    28 1
    69    27    29 1
    70    28    68 1
    71    28    69 1
    72    28    70 1
    73    29    71 1
    74    29    72 1
    75    29    73 1
    76    30    74 1
@<TRIPOS>SUBSTRUCTURE
     1 VDX         1 TEMP              0 ****  ****    0 ROOT
