@<TRIPOS>MOLECULE
VDY
   73    75     1     0     0
SMALL
bcc


@<TRIPOS>ATOM
      1 O1         -0.3160    0.5070    0.5260 oh        1 VDY     -0.600800
      2 O2         13.8250   -4.5440   -2.6920 oh        1 VDY     -0.597800
      3 C1          3.0530    1.6090   -0.7260 c3        1 VDY     -0.037200
      4 C2          1.5580    1.6740   -0.4930 c3        1 VDY     -0.110400
      5 C3          1.0660    0.4080    0.2000 c3        1 VDY      0.144100
      6 C4          1.8010    0.1850    1.5200 c3        1 VDY     -0.037200
      7 C5          3.2800    0.1890    1.3220 ce        1 VDY     -0.079200
      8 C6          4.0420   -0.7810    1.8690 cf        1 VDY     -0.116000
      9 C7          5.4740   -0.8900    1.7230 cf        1 VDY     -0.150000
     10 C8          6.2960   -1.5870    2.5270 c2        1 VDY     -0.079400
     11 C9          5.8780   -2.2980    3.7720 c3        1 VDY     -0.044200
     12 C10         3.8030    1.3050    0.5300 ce        1 VDY     -0.076200
     13 C11         6.4680   -3.6920    3.9080 c3        1 VDY     -0.073400
     14 C12         7.9510   -3.7740    3.5880 c3        1 VDY     -0.067400
     15 C13         8.2470   -3.1390    2.2370 c3        1 VDY     -0.040000
     16 C14         7.7660   -1.6620    2.3200 c3        1 VDY     -0.036500
     17 C15         8.4250   -0.9970    1.1210 c3        1 VDY     -0.073400
     18 C16         9.7670   -1.7170    0.9730 c3        1 VDY     -0.079400
     19 C17         9.7450   -2.9500    1.9010 c3        1 VDY     -0.053700
     20 C18         7.5320   -3.8840    1.1230 c3        1 VDY     -0.083100
     21 C19         4.8750    2.0180    0.8970 c2        1 VDY     -0.211000
     22 C20        10.4630   -4.1440    1.2790 c3        1 VDY     -0.055700
     23 C21        10.4130   -5.3620    2.1810 c3        1 VDY     -0.091100
     24 C22        11.9200   -3.7900    0.9870 c3        1 VDY     -0.079400
     25 C23        12.5020   -4.6560   -0.1120 c3        1 VDY     -0.079400
     26 C24        13.9630   -4.3330   -0.3390 c3        1 VDY     -0.064400
     27 C25        14.5480   -5.0420   -1.5640 c3        1 VDY      0.147800
     28 C26        16.0250   -4.6820   -1.7030 c3        1 VDY     -0.123100
     29 C27        14.3910   -6.5540   -1.4710 c3        1 VDY     -0.123100
     30 HO1        -0.7800    0.7130   -0.2930 ho        1 VDY      0.399000
     31 HO2        14.1880   -4.9850   -3.4690 ho        1 VDY      0.397000
     32 H11         3.2800    0.8030   -1.4770 hc        1 VDY      0.049200
     33 H12         3.4020    2.5820   -1.1630 hc        1 VDY      0.049200
     34 H21         1.3050    2.5610    0.1430 hc        1 VDY      0.048700
     35 H22         1.0290    1.7970   -1.4730 hc        1 VDY      0.048700
     36 H31         1.2200   -0.4790   -0.4780 h1        1 VDY      0.036700
     37 H41         1.4530   -0.7810    1.9690 hc        1 VDY      0.062200
     38 H42         1.5210    1.0060    2.2340 hc        1 VDY      0.062200
     39 H61         3.5460   -1.5790    2.4520 ha        1 VDY      0.124000
     40 H71         5.9000   -0.3440    0.8590 ha        1 VDY      0.132000
     41 H91         4.7610   -2.3790    3.8340 hc        1 VDY      0.047700
     42 H92         6.2100   -1.6730    4.6470 hc        1 VDY      0.047700
     43 H111        5.9100   -4.3930    3.2310 hc        1 VDY      0.040200
     44 H112        6.3040   -4.0480    4.9600 hc        1 VDY      0.040200
     45 H121        8.2660   -4.8490    3.5920 hc        1 VDY      0.041700
     46 H122        8.5400   -3.2480    4.3840 hc        1 VDY      0.041700
     47 H141        8.2360   -1.2080    3.2450 hc        1 VDY      0.053700
     48 H151        8.5630    0.0990    1.2870 hc        1 VDY      0.044700
     49 H152        7.8080   -1.1300    0.1970 hc        1 VDY      0.044700
     50 H161        9.9210   -2.0280   -0.0900 hc        1 VDY      0.043700
     51 H162       10.6080   -1.0390    1.2580 hc        1 VDY      0.043700
     52 H171       10.2790   -2.6920    2.8570 hc        1 VDY      0.045700
     53 H181        7.8560   -3.4960    0.1270 hc        1 VDY      0.037700
     54 H182        7.7610   -4.9760    1.1730 hc        1 VDY      0.037700
     55 H183        6.4270   -3.7480    1.2070 hc        1 VDY      0.037700
     56 H191        5.4360    1.8030    1.8160 ha        1 VDY      0.117500
     57 H192        5.2480    2.8610    0.3010 ha        1 VDY      0.117500
     58 H201        9.9570   -4.3970    0.3040 hc        1 VDY      0.053700
     59 H211       10.6510   -5.0820    3.2350 hc        1 VDY      0.033367
     60 H212        9.4000   -5.8320    2.1570 hc        1 VDY      0.033367
     61 H213       11.1540   -6.1270    1.8440 hc        1 VDY      0.033367
     62 H221       12.0040   -2.7160    0.6760 hc        1 VDY      0.040200
     63 H222       12.5260   -3.9090    1.9240 hc        1 VDY      0.040200
     64 H231       12.3930   -5.7400    0.1570 hc        1 VDY      0.048700
     65 H232       11.9370   -4.4910   -1.0680 hc        1 VDY      0.048700
     66 H241       14.5660   -4.6290    0.5580 hc        1 VDY      0.047200
     67 H242       14.0800   -3.2270   -0.4860 hc        1 VDY      0.047200
     68 H261       16.4570   -5.1650   -2.6120 hc        1 VDY      0.042367
     69 H262       16.1410   -3.5770   -1.7990 hc        1 VDY      0.042367
     70 H263       16.5900   -5.0320   -0.8070 hc        1 VDY      0.042367
     71 H271       14.7790   -6.9200   -0.4910 hc        1 VDY      0.042367
     72 H272       14.9580   -7.0540   -2.2920 hc        1 VDY      0.042367
     73 H273       13.3140   -6.8320   -1.5640 hc        1 VDY      0.042367
@<TRIPOS>BOND
     1    1    5 1   
     2    1   30 1   
     3    2   27 1   
     4    2   31 1   
     5    3    4 1   
     6    3   12 1   
     7    3   32 1   
     8    3   33 1   
     9    4    5 1   
    10    4   34 1   
    11    4   35 1   
    12    5    6 1   
    13    5   36 1   
    14    6    7 1   
    15    6   37 1   
    16    6   38 1   
    17    7    8 2   
    18    7   12 1   
    19    8    9 1   
    20    8   39 1   
    21    9   10 2   
    22    9   40 1   
    23   10   11 1   
    24   10   16 1   
    25   11   13 1   
    26   11   41 1   
    27   11   42 1   
    28   12   21 2   
    29   13   14 1   
    30   13   43 1   
    31   13   44 1   
    32   14   15 1   
    33   14   45 1   
    34   14   46 1   
    35   15   16 1   
    36   15   19 1   
    37   15   20 1   
    38   16   17 1   
    39   16   47 1   
    40   17   18 1   
    41   17   48 1   
    42   17   49 1   
    43   18   19 1   
    44   18   50 1   
    45   18   51 1   
    46   19   22 1   
    47   19   52 1   
    48   20   53 1   
    49   20   54 1   
    50   20   55 1   
    51   21   56 1   
    52   21   57 1   
    53   22   23 1   
    54   22   24 1   
    55   22   58 1   
    56   23   59 1   
    57   23   60 1   
    58   23   61 1   
    59   24   25 1   
    60   24   62 1   
    61   24   63 1   
    62   25   26 1   
    63   25   64 1   
    64   25   65 1   
    65   26   27 1   
    66   26   66 1   
    67   26   67 1   
    68   27   28 1   
    69   27   29 1   
    70   28   68 1   
    71   28   69 1   
    72   28   70 1   
    73   29   71 1   
    74   29   72 1   
    75   29   73 1   
@<TRIPOS>SUBSTRUCTURE
     1 VDY         1 TEMP              0 ****  ****    0 ROOT
