@<TRIPOS>MOLECULE
molecule
   73    75     1     0     0
SMALL
bcc


@<TRIPOS>ATOM
      1 O1           0.0000     0.0000     0.0000 oh         1 VDY      -0.607800
      2 O2          13.4020    -5.0090    -2.8510 oh         1 VDY      -0.603800
      3 C1           3.4590     1.1760    -0.8730 c3         1 VDY      -0.038200
      4 C2           1.9360     1.2450    -0.7280 c3         1 VDY      -0.085400
      5 C3           1.4290     0.0000     0.0000 c3         1 VDY       0.149100
      6 C4           1.9380     0.0000     1.4450 c3         1 VDY      -0.046200
      7 C5           3.4520     0.0560     1.4170 ce         1 VDY      -0.090200
      8 C6           4.2050    -0.7610     2.1810 cf         1 VDY      -0.123000
      9 C7           5.6650    -0.6760     2.1270 cf         1 VDY      -0.163000
     10 C8           6.4080    -1.4840     2.8830 c2         1 VDY      -0.092400
     11 C9           5.7970    -2.5130     3.8230 c3         1 VDY      -0.044200
     12 C10          4.0640     1.0540     0.5160 ce         1 VDY      -0.084200
     13 C11          6.4300    -3.8860     3.6050 c3         1 VDY      -0.077400
     14 C12          7.9650    -3.8100     3.5850 c3         1 VDY      -0.064400
     15 C13          8.3730    -2.8740     2.4770 c3         1 VDY      -0.060000
     16 C14          7.9080    -1.4430     2.8700 c3         1 VDY      -0.036500
     17 C15          8.5620    -0.6020     1.7710 c3         1 VDY      -0.078400
     18 C16          9.9780    -1.2330     1.6540 c3         1 VDY      -0.081400
     19 C17          9.8520    -2.6880     2.1770 c3         1 VDY      -0.053700
     20 C18          7.6440    -3.2650     1.1910 c3         1 VDY      -0.092100
     21 C19          5.0990     1.8040     0.8960 c2         1 VDY      -0.219000
     22 C20         10.3060    -3.6790     1.1050 c3         1 VDY      -0.069700
     23 C21         10.1070    -5.1070     1.6140 c3         1 VDY      -0.097100
     24 C22         11.7860    -3.4500     0.7920 c3         1 VDY      -0.081400
     25 C23         12.2400    -4.4410    -0.2790 c3         1 VDY      -0.083400
     26 C24         13.7210    -4.2130    -0.5920 c3         1 VDY      -0.064400
     27 C25         14.1750    -5.2050    -1.6650 c3         1 VDY       0.146800
     28 C26         15.6550    -4.9760    -1.9770 c3         1 VDY      -0.121100
     29 C27         13.9760    -6.6330    -1.1550 c3         1 VDY      -0.121100
     30 HO1         -0.3140    -0.8180    -0.3490 ho         1 VDY       0.400000
     31 HO2         13.8210    -5.4460    -3.5750 ho         1 VDY       0.401000
     32 H11          3.7300     0.3110    -1.4650 hc         1 VDY       0.050700
     33 H12          3.8210     2.0800    -1.3490 hc         1 VDY       0.050700
     34 H21          1.4840     1.2950    -1.7110 hc         1 VDY       0.054200
     35 H22          1.6690     2.1270    -0.1580 hc         1 VDY       0.054200
     36 H31          1.7930    -0.8850    -0.5080 h1         1 VDY       0.033700
     37 H41          1.6170    -0.9060     1.9430 hc         1 VDY       0.058200
     38 H42          1.5520     0.8670     1.9660 hc         1 VDY       0.058200
     39 H61          3.7290    -1.4800     2.8370 ha         1 VDY       0.133000
     40 H71          6.1420     0.0430     1.4710 ha         1 VDY       0.148000
     41 H91          5.9650    -2.2030     4.8470 hc         1 VDY       0.049200
     42 H92          4.7320    -2.5790     3.6340 hc         1 VDY       0.049200
     43 H111         6.0850    -4.2860     2.6590 hc         1 VDY       0.042700
     44 H112         6.1210    -4.5460     4.4070 hc         1 VDY       0.042700
     45 H121         8.3770    -4.7950     3.4010 hc         1 VDY       0.044700
     46 H122         8.3240    -3.4290     4.5340 hc         1 VDY       0.044700
     47 H141         8.2950    -1.1700     3.8450 hc         1 VDY       0.065700
     48 H151         8.0200    -0.7030     0.8380 hc         1 VDY       0.048200
     49 H152         8.6300     0.4360     2.0730 hc         1 VDY       0.048200
     50 H161        10.6820    -0.6790     2.2640 hc         1 VDY       0.044700
     51 H162        10.2970    -1.2380     0.6190 hc         1 VDY       0.044700
     52 H171        10.4350    -2.8110     3.0820 hc         1 VDY       0.053700
     53 H181         7.7030    -4.3380     1.0540 hc         1 VDY       0.040367
     54 H182         8.1080    -2.7680     0.3480 hc         1 VDY       0.040367
     55 H183         6.6050    -2.9670     1.2590 hc         1 VDY       0.040367
     56 H191         5.5270     2.5240     0.2100 ha         1 VDY       0.120500
     57 H192         5.5090     1.6950     1.8930 ha         1 VDY       0.120500
     58 H201         9.7200    -3.5310     0.2050 hc         1 VDY       0.060700
     59 H211        10.1060    -5.1070     2.6970 hc         1 VDY       0.036033
     60 H212         9.1620    -5.4920     1.2520 hc         1 VDY       0.036033
     61 H213        10.9140    -5.7340     1.2540 hc         1 VDY       0.036033
     62 H221        12.3720    -3.5970     1.6910 hc         1 VDY       0.040200
     63 H222        11.9270    -2.4380     0.4310 hc         1 VDY       0.040200
     64 H231        12.0990    -5.4530     0.0820 hc         1 VDY       0.052700
     65 H232        11.6550    -4.2940    -1.1790 hc         1 VDY       0.052700
     66 H241        13.8620    -3.2020    -0.9530 hc         1 VDY       0.047700
     67 H242        14.3060    -4.3610     0.3070 hc         1 VDY       0.047700
     68 H261        15.7940    -3.9670    -2.3480 hc         1 VDY       0.041867
     69 H262        16.2400    -5.1130    -1.0760 hc         1 VDY       0.041867
     70 H263        15.9790    -5.6840    -2.7300 hc         1 VDY       0.041867
     71 H271        14.6800    -7.2930    -1.6470 hc         1 VDY       0.041867
     72 H272        14.1420    -6.6610    -0.0850 hc         1 VDY       0.041867
     73 H273        12.9650    -6.9560    -1.3730 hc         1 VDY       0.041867
@<TRIPOS>BOND
     1     1     5 1
     2     1    30 1
     3     2    27 1
     4     2    31 1
     5     3     4 1
     6     3    12 1
     7     3    32 1
     8     3    33 1
     9     4     5 1
    10     4    34 1
    11     4    35 1
    12     5     6 1
    13     5    36 1
    14     6     7 1
    15     6    37 1
    16     6    38 1
    17     7     8 2
    18     7    12 1
    19     8     9 1
    20     8    39 1
    21     9    10 2
    22     9    40 1
    23    10    11 1
    24    10    16 1
    25    11    13 1
    26    11    41 1
    27    11    42 1
    28    12    21 2
    29    13    14 1
    30    13    43 1
    31    13    44 1
    32    14    15 1
    33    14    45 1
    34    14    46 1
    35    15    16 1
    36    15    19 1
    37    15    20 1
    38    16    17 1
    39    16    47 1
    40    17    18 1
    41    17    48 1
    42    17    49 1
    43    18    19 1
    44    18    50 1
    45    18    51 1
    46    19    22 1
    47    19    52 1
    48    20    53 1
    49    20    54 1
    50    20    55 1
    51    21    56 1
    52    21    57 1
    53    22    23 1
    54    22    24 1
    55    22    58 1
    56    23    59 1
    57    23    60 1
    58    23    61 1
    59    24    25 1
    60    24    62 1
    61    24    63 1
    62    25    26 1
    63    25    64 1
    64    25    65 1
    65    26    27 1
    66    26    66 1
    67    26    67 1
    68    27    28 1
    69    27    29 1
    70    28    68 1
    71    28    69 1
    72    28    70 1
    73    29    71 1
    74    29    72 1
    75    29    73 1
@<TRIPOS>SUBSTRUCTURE
     1 VDY         1 TEMP              0 ****  ****    0 ROOT
