@<TRIPOS>MOLECULE
VDZ
   74    76     1     0     0
SMALL
bcc


@<TRIPOS>ATOM
      1 O1          0.3300    0.0950    1.0860 oh        1 VDZ     -0.593800
      2 C1          1.6810    0.1450    0.6370 c3        1 VDZ      0.183300
      3 C2          2.6490   -0.0700    1.7670 c2        1 VDZ     -0.193400
      4 C28         3.4640    0.8900    2.2020 c2        1 VDZ     -0.198000
      5 C3          2.6120   -1.4640    2.3200 c3        1 VDZ      0.183300
      6 O2          3.5650   -1.6880    3.3490 oh        1 VDZ     -0.593800
      7 C4          2.9290   -2.4720    1.2120 c3        1 VDZ     -0.035200
      8 C10         1.8270   -0.9200   -0.4540 c3        1 VDZ     -0.035200
      9 C5          1.9980   -2.3060    0.0600 c2        1 VDZ     -0.105400
     10 C6          1.4040   -3.3820   -0.4890 ce        1 VDZ     -0.123000
     11 C7          0.5460   -3.3600   -1.6540 ce        1 VDZ     -0.146000
     12 C8         -0.4210   -4.2540   -1.9210 c2        1 VDZ     -0.077400
     13 C9         -0.7630   -5.4180   -1.0480 c3        1 VDZ     -0.044200
     14 C11        -2.2570   -5.6110   -0.8480 c3        1 VDZ     -0.073400
     15 C14        -1.2330   -4.2360   -3.1650 c3        1 VDZ     -0.036500
     16 C13        -2.7550   -4.1910   -2.8470 c3        1 VDZ     -0.040000
     17 C12        -3.0800   -5.4870   -2.1180 c3        1 VDZ     -0.067400
     18 C18        -3.0990   -2.9850   -1.9900 c3        1 VDZ     -0.084100
     19 C15        -1.0420   -3.1470   -4.2090 c3        1 VDZ     -0.073400
     20 C16        -2.3430   -3.1560   -5.0120 c3        1 VDZ     -0.078400
     21 C17        -3.3560   -4.0490   -4.2640 c3        1 VDZ     -0.054700
     22 C20        -4.7730   -3.4920   -4.3780 c3        1 VDZ     -0.054700
     23 C21        -5.1640   -3.3840   -5.8420 c3        1 VDZ     -0.093100
     24 C22        -5.7790   -4.3540   -3.6270 c3        1 VDZ     -0.076400
     25 C23        -7.2120   -3.9120   -3.8430 c3        1 VDZ     -0.079400
     26 C24        -8.1450   -4.6200   -2.8840 c3        1 VDZ     -0.064400
     27 C25        -9.5890   -4.1150   -2.9740 c3        1 VDZ      0.147800
     28 C26       -10.1550   -4.2650   -4.3810 c3        1 VDZ     -0.123600
     29 C27       -10.4590   -4.8830   -1.9820 c3        1 VDZ     -0.123600
     30 O3         -9.5490   -2.7340   -2.6090 oh        1 VDZ     -0.597800
     31 HO1         0.2650    0.6920    1.8410 ho        1 VDZ      0.399500
     32 H1          1.8590    1.1600    0.1720 h1        1 VDZ      0.044700
     33 H281        4.1950    0.7200    3.0050 ha        1 VDZ      0.119500
     34 H282        3.4660    1.9010    1.7750 ha        1 VDZ      0.119500
     35 H3          1.5730   -1.6560    2.7210 h1        1 VDZ      0.044700
     36 HO2         3.3330   -1.0960    4.0750 ho        1 VDZ      0.399500
     37 H41         2.8680   -3.5050    1.6440 hc        1 VDZ      0.063200
     38 H42         3.9850   -2.3140    0.8660 hc        1 VDZ      0.063200
     39 H101        0.9180   -0.8530   -1.1100 hc        1 VDZ      0.063200
     40 H102        2.7280   -0.6550   -1.0720 hc        1 VDZ      0.063200
     41 H6          1.5870   -4.3790   -0.0480 ha        1 VDZ      0.122000
     42 H7          0.7370   -2.5420   -2.3720 ha        1 VDZ      0.125000
     43 H91        -0.2840   -5.3130   -0.0390 hc        1 VDZ      0.047200
     44 H92        -0.3350   -6.3410   -1.5280 hc        1 VDZ      0.047200
     45 H111       -2.6250   -4.8580   -0.1010 hc        1 VDZ      0.041200
     46 H112       -2.4280   -6.6270   -0.4030 hc        1 VDZ      0.041200
     47 H14        -1.0280   -5.2230   -3.6830 hc        1 VDZ      0.053700
     48 H121       -4.1670   -5.5300   -1.8500 hc        1 VDZ      0.041200
     49 H122       -2.8680   -6.3570   -2.7930 hc        1 VDZ      0.041200
     50 H181       -2.4230   -2.9280   -1.1030 hc        1 VDZ      0.039700
     51 H182       -4.1540   -3.0480   -1.6300 hc        1 VDZ      0.039700
     52 H183       -2.9790   -2.0440   -2.5800 hc        1 VDZ      0.039700
     53 H151       -0.8900   -2.1490   -3.7260 hc        1 VDZ      0.044200
     54 H152       -0.1570   -3.3530   -4.8570 hc        1 VDZ      0.044200
     55 H161       -2.1700   -3.5550   -6.0420 hc        1 VDZ      0.041700
     56 H162       -2.7360   -2.1130   -5.1110 hc        1 VDZ      0.041700
     57 H17        -3.3540   -5.0710   -4.7370 hc        1 VDZ      0.045700
     58 H20        -4.7910   -2.4590   -3.9290 hc        1 VDZ      0.052700
     59 H211       -4.3850   -2.8420   -6.4290 hc        1 VDZ      0.033367
     60 H212       -5.2970   -4.4000   -6.2860 hc        1 VDZ      0.033367
     61 H213       -6.1240   -2.8220   -5.9450 hc        1 VDZ      0.033367
     62 H221       -5.5510   -4.3000   -2.5290 hc        1 VDZ      0.040200
     63 H222       -5.6650   -5.4240   -3.9430 hc        1 VDZ      0.040200
     64 H231       -7.3000   -2.8040   -3.6920 hc        1 VDZ      0.049700
     65 H232       -7.5220   -4.1350   -4.8980 hc        1 VDZ      0.049700
     66 H241       -8.1460   -5.7210   -3.0920 hc        1 VDZ      0.046200
     67 H242       -7.7870   -4.4650   -1.8320 hc        1 VDZ      0.046200
     68 H261       -9.6510   -3.5500   -5.0740 hc        1 VDZ      0.042033
     69 H262      -11.2500   -4.0470   -4.3830 hc        1 VDZ      0.042033
     70 H263       -9.9950   -5.3050   -4.7490 hc        1 VDZ      0.042033
     71 H271      -11.5080   -4.5040   -2.0130 hc        1 VDZ      0.042033
     72 H272      -10.0640   -4.7490   -0.9470 hc        1 VDZ      0.042033
     73 H273      -10.4600   -5.9680   -2.2350 hc        1 VDZ      0.042033
     74 HO3       -10.4550   -2.4090   -2.6590 ho        1 VDZ      0.396000
@<TRIPOS>BOND
     1    1    2 1   
     2    1   31 1   
     3    2    3 1   
     4    2    8 1   
     5    2   32 1   
     6    3    4 2   
     7    3    5 1   
     8    4   33 1   
     9    4   34 1   
    10    5    6 1   
    11    5    7 1   
    12    5   35 1   
    13    6   36 1   
    14    7    9 1   
    15    7   37 1   
    16    7   38 1   
    17    8    9 1   
    18    8   39 1   
    19    8   40 1   
    20    9   10 2   
    21   10   11 1   
    22   10   41 1   
    23   11   12 2   
    24   11   42 1   
    25   12   13 1   
    26   12   15 1   
    27   13   14 1   
    28   13   43 1   
    29   13   44 1   
    30   14   17 1   
    31   14   45 1   
    32   14   46 1   
    33   15   16 1   
    34   15   19 1   
    35   15   47 1   
    36   16   17 1   
    37   16   18 1   
    38   16   21 1   
    39   17   48 1   
    40   17   49 1   
    41   18   50 1   
    42   18   51 1   
    43   18   52 1   
    44   19   20 1   
    45   19   53 1   
    46   19   54 1   
    47   20   21 1   
    48   20   55 1   
    49   20   56 1   
    50   21   22 1   
    51   21   57 1   
    52   22   23 1   
    53   22   24 1   
    54   22   58 1   
    55   23   59 1   
    56   23   60 1   
    57   23   61 1   
    58   24   25 1   
    59   24   62 1   
    60   24   63 1   
    61   25   26 1   
    62   25   64 1   
    63   25   65 1   
    64   26   27 1   
    65   26   66 1   
    66   26   67 1   
    67   27   28 1   
    68   27   29 1   
    69   27   30 1   
    70   28   68 1   
    71   28   69 1   
    72   28   70 1   
    73   29   71 1   
    74   29   72 1   
    75   29   73 1   
    76   30   74 1   
@<TRIPOS>SUBSTRUCTURE
     1 VDZ         1 TEMP              0 ****  ****    0 ROOT
