@<TRIPOS>MOLECULE
molecule
   74    76     1     0     0
SMALL
bcc


@<TRIPOS>ATOM
      1 O1           0.0000     0.0000     0.0000 oh         1 VDZ      -0.602800
      2 C1           1.4300     0.0000     0.0000 c3         1 VDZ       0.194300
      3 C2           1.9370     0.0000     1.4240 c2         1 VDZ      -0.168400
      4 C28          2.6190     1.0180     1.8890 c2         1 VDZ      -0.193000
      5 C3           1.6440    -1.1950     2.3030 c3         1 VDZ       0.194300
      6 O2           2.3070    -1.0410     3.5590 oh         1 VDZ      -0.602800
      7 C4           2.1580    -2.4570     1.6000 c3         1 VDZ      -0.043200
      8 C10          1.9440    -1.2630    -0.7030 c3         1 VDZ      -0.043200
      9 C5           1.6500    -2.4570     0.1760 c2         1 VDZ      -0.114400
     10 C6           0.9580    -3.4890    -0.2950 ce         1 VDZ      -0.131000
     11 C7           0.3750    -3.4290    -1.6440 ce         1 VDZ      -0.146000
     12 C8          -0.4050    -4.4150    -2.0750 c2         1 VDZ      -0.097400
     13 C9          -0.7300    -5.6320    -1.2200 c3         1 VDZ      -0.042200
     14 C11         -2.2360    -5.8840    -1.1890 c3         1 VDZ      -0.079400
     15 C14         -1.0330    -4.4060    -3.4380 c3         1 VDZ      -0.033500
     16 C13         -2.5650    -4.5030    -3.1900 c3         1 VDZ      -0.062000
     17 C12         -2.8470    -5.8610    -2.6000 c3         1 VDZ      -0.067400
     18 C18         -2.9830    -3.4190    -2.1950 c3         1 VDZ      -0.093100
     19 C15         -0.9410    -3.0990    -4.2280 c3         1 VDZ      -0.078400
     20 C16         -2.1410    -3.2060    -5.2100 c3         1 VDZ      -0.080400
     21 C17         -3.1580    -4.1730    -4.5510 c3         1 VDZ      -0.055700
     22 C20         -4.5160    -3.4860    -4.3870 c3         1 VDZ      -0.068700
     23 C21         -5.0940    -3.1640    -5.7660 c3         1 VDZ      -0.091100
     24 C22         -5.4710    -4.4170    -3.6380 c3         1 VDZ      -0.088400
     25 C23         -6.7860    -3.6840    -3.3650 c3         1 VDZ      -0.081400
     26 C24         -7.7430    -4.6150    -2.6160 c3         1 VDZ      -0.064400
     27 C25         -9.0580    -3.8830    -2.3420 c3         1 VDZ       0.146800
     28 C26         -9.6910    -3.4610    -3.6690 c3         1 VDZ      -0.119600
     29 C27        -10.0130    -4.8130    -1.5930 c3         1 VDZ      -0.119600
     30 O3          -8.8000    -2.7230    -1.5470 oh         1 VDZ      -0.603800
     31 HO1         -0.3140     0.8890    -0.0260 ho         1 VDZ       0.401500
     32 H1           1.7990     0.8780    -0.5160 h1         1 VDZ       0.045200
     33 H281         2.9780     1.0080     2.9110 ha         1 VDZ       0.121500
     34 H282         2.8240     1.8690     1.2510 ha         1 VDZ       0.121500
     35 H3           0.5750    -1.2770     2.4580 h1         1 VDZ       0.045200
     36 HO2          1.7010    -1.2170     4.2590 ho         1 VDZ       0.401500
     37 H41          3.2410    -2.4570     1.5990 hc         1 VDZ       0.059450
     38 H42          1.7890    -3.3350     2.1160 hc         1 VDZ       0.059450
     39 H101         1.4380    -1.3800    -1.6540 hc         1 VDZ       0.059450
     40 H102         3.0120    -1.1820    -0.8600 hc         1 VDZ       0.059450
     41 H6           0.7550    -4.3400     0.3440 ha         1 VDZ       0.129000
     42 H7           0.5800    -2.5800    -2.2850 ha         1 VDZ       0.137000
     43 H91         -0.3780    -5.4600    -0.2100 hc         1 VDZ       0.048200
     44 H92         -0.2330    -6.5000    -1.6340 hc         1 VDZ       0.048200
     45 H111        -2.4210    -6.8530    -0.7410 hc         1 VDZ       0.043200
     46 H112        -2.7090    -5.1160    -0.5880 hc         1 VDZ       0.043200
     47 H14         -0.6860    -5.2430    -4.0310 hc         1 VDZ       0.065700
     48 H121        -3.9170    -6.0200    -2.5400 hc         1 VDZ       0.044700
     49 H122        -2.3890    -6.6300    -3.2110 hc         1 VDZ       0.044700
     50 H181        -2.2730    -3.3860    -1.3780 hc         1 VDZ       0.042700
     51 H182        -3.9690    -3.6470    -1.8070 hc         1 VDZ       0.042700
     52 H183        -3.0050    -2.4590    -2.6950 hc         1 VDZ       0.042700
     53 H151        -0.0050    -3.0470    -4.7730 hc         1 VDZ       0.047700
     54 H152        -1.0590    -2.2450    -3.5720 hc         1 VDZ       0.047700
     55 H161        -1.8090    -3.6080    -6.1600 hc         1 VDZ       0.043700
     56 H162        -2.5930    -2.2310    -5.3500 hc         1 VDZ       0.043700
     57 H17         -3.2560    -5.0740    -5.1450 hc         1 VDZ       0.052700
     58 H20         -4.3900    -2.5690    -3.8250 hc         1 VDZ       0.061700
     59 H211        -5.7380    -2.2960    -5.6940 hc         1 VDZ       0.033367
     60 H212        -5.6670    -4.0100    -6.1250 hc         1 VDZ       0.033367
     61 H213        -4.2850    -2.9560    -6.4570 hc         1 VDZ       0.033367
     62 H221        -5.0220    -4.7150    -2.6980 hc         1 VDZ       0.045700
     63 H222        -5.6660    -5.2960    -4.2400 hc         1 VDZ       0.045700
     64 H231        -6.5910    -2.8050    -2.7620 hc         1 VDZ       0.051200
     65 H232        -7.2350    -3.3850    -4.3040 hc         1 VDZ       0.051200
     66 H241        -7.9370    -5.4940    -3.2190 hc         1 VDZ       0.047700
     67 H242        -7.2940    -4.9140    -1.6760 hc         1 VDZ       0.047700
     68 H261       -10.7530    -3.2970    -3.5260 hc         1 VDZ       0.041033
     69 H262        -9.2280    -2.5450    -4.0150 hc         1 VDZ       0.041033
     70 H263        -9.5420    -4.2410    -4.4050 hc         1 VDZ       0.041033
     71 H271       -10.8770    -4.2510    -1.2590 hc         1 VDZ       0.041033
     72 H272       -10.3340    -5.6090    -2.2540 hc         1 VDZ       0.041033
     73 H273        -9.5060    -5.2380    -0.7350 hc         1 VDZ       0.041033
     74 HO3         -9.6120    -2.3970    -1.1950 ho         1 VDZ       0.400000
@<TRIPOS>BOND
     1     1     2 1
     2     1    31 1
     3     2     3 1
     4     2     8 1
     5     2    32 1
     6     3     4 2
     7     3     5 1
     8     4    33 1
     9     4    34 1
    10     5     6 1
    11     5     7 1
    12     5    35 1
    13     6    36 1
    14     7     9 1
    15     7    37 1
    16     7    38 1
    17     8     9 1
    18     8    39 1
    19     8    40 1
    20     9    10 2
    21    10    11 1
    22    10    41 1
    23    11    12 2
    24    11    42 1
    25    12    13 1
    26    12    15 1
    27    13    14 1
    28    13    43 1
    29    13    44 1
    30    14    17 1
    31    14    45 1
    32    14    46 1
    33    15    16 1
    34    15    19 1
    35    15    47 1
    36    16    17 1
    37    16    18 1
    38    16    21 1
    39    17    48 1
    40    17    49 1
    41    18    50 1
    42    18    51 1
    43    18    52 1
    44    19    20 1
    45    19    53 1
    46    19    54 1
    47    20    21 1
    48    20    55 1
    49    20    56 1
    50    21    22 1
    51    21    57 1
    52    22    23 1
    53    22    24 1
    54    22    58 1
    55    23    59 1
    56    23    60 1
    57    23    61 1
    58    24    25 1
    59    24    62 1
    60    24    63 1
    61    25    26 1
    62    25    64 1
    63    25    65 1
    64    26    27 1
    65    26    66 1
    66    26    67 1
    67    27    28 1
    68    27    29 1
    69    27    30 1
    70    28    68 1
    71    28    69 1
    72    28    70 1
    73    29    71 1
    74    29    72 1
    75    29    73 1
    76    30    74 1
@<TRIPOS>SUBSTRUCTURE
     1 VDZ         1 TEMP              0 ****  ****    0 ROOT
