@<TRIPOS>MOLECULE
VEK
   50    54     1     0     0
SMALL
bcc


@<TRIPOS>ATOM
      1 C01         0.0580   -0.3090   -0.2010 c3        1 VEK     -0.141400
      2 C02         1.4290   -0.0450    0.2280 cc        1 VEK      0.267000
      3 C03         2.3240   -0.6300    1.1010 cd        1 VEK     -0.342600
      4 C04         3.5200    0.2050    1.0070 cd        1 VEK      0.314600
      5 C05         4.7690    0.0250    1.8050 c3        1 VEK      0.128500
      6 N06         5.3280   -1.3210    1.7350 n3        1 VEK     -0.708600
      7 C07         6.5410   -1.4410    2.5340 c3        1 VEK      0.153300
      8 C08         7.8000   -0.8100    1.9040 c3        1 VEK      0.149300
      9 N09         8.0000   -1.2100    0.5180 nh        1 VEK     -0.636000
     10 C10         9.1310   -0.5870   -0.0880 ca        1 VEK      0.161600
     11 C11        10.2810   -1.3290   -0.4020 ca        1 VEK     -0.123200
     12 BR         10.4090   -3.1580   -0.0520 br        1 VEK     -0.053100
     13 C13        11.3990   -0.6840   -1.0060 ca        1 VEK      0.407200
     14 N14        11.4870    0.6060   -1.3260 nb        1 VEK     -0.595000
     15 C15        10.3890    1.3620   -1.0360 ca        1 VEK      0.541300
     16 N16        10.1780    2.7450   -1.2600 nc        1 VEK     -0.608700
     17 C17         8.9280    2.9930   -0.7960 cd        1 VEK      0.525400
     18 C18         8.3010    4.2960   -0.7940 cd        1 VEK     -0.282500
     19 C19         8.9510    5.5540   -0.7800 cc        1 VEK      0.379200
     20 N20         8.0100    6.5730   -0.7780 nc        1 VEK     -0.671000
     21 C21         6.8010    5.9620   -0.7990 cd        1 VEK      0.417400
     22 N22         6.9190    4.5670   -0.8020 na        1 VEK     -0.196900
     23 C23         5.8410    3.6400   -0.9080 c3        1 VEK      0.015600
     24 N24         8.2890    1.8410   -0.2800 na        1 VEK     -0.279300
     25 C25         9.1930    0.7890   -0.4130 ca        1 VEK     -0.215500
     26 C26         6.8090   -1.1970   -0.3160 c3        1 VEK      0.149300
     27 C27         5.5740   -1.8020    0.3840 c3        1 VEK      0.153300
     28 N28         3.2940    1.1980    0.1210 nc        1 VEK     -0.385300
     29 O29         2.0720    1.0820   -0.3530 os        1 VEK     -0.122100
     30 H01        -0.6030    0.5560    0.0590 hc        1 VEK      0.068033
     31 H01A        0.0190   -0.4580   -1.3100 hc        1 VEK      0.068033
     32 H01B       -0.3280   -1.2290    0.3040 hc        1 VEK      0.068033
     33 H03         2.2110   -1.5090    1.7270 ha        1 VEK      0.187000
     34 H05         5.5260    0.8100    1.4960 h1        1 VEK      0.048200
     35 H05A        4.5030    0.2160    2.8870 h1        1 VEK      0.048200
     36 H07         6.3810   -0.9660    3.5400 h1        1 VEK      0.069200
     37 H07A        6.7190   -2.5430    2.6880 h1        1 VEK      0.069200
     38 H08         7.7350    0.3130    2.0130 h1        1 VEK      0.041700
     39 H08A        8.7000   -1.1560    2.4860 h1        1 VEK      0.041700
     40 H13        12.3010   -1.2810   -1.2500 h4        1 VEK      0.041100
     41 H19        10.0260    5.7450   -0.7740 h4        1 VEK      0.064100
     42 H21         5.8300    6.4690   -0.8080 h5        1 VEK      0.067100
     43 H23         6.0690    2.8580   -1.6810 h1        1 VEK      0.062033
     44 H23A        4.9060    4.1840   -1.2110 h1        1 VEK      0.062033
     45 H23B        5.6530    3.1400    0.0820 h1        1 VEK      0.062033
     46 HN24        7.4030    1.8010    0.1520 hn        1 VEK      0.309700
     47 H26         7.0360   -1.8140   -1.2300 h1        1 VEK      0.041700
     48 H26A        6.5420   -0.1570   -0.6660 h1        1 VEK      0.041700
     49 H27         4.6750   -1.5960   -0.2580 h1        1 VEK      0.069200
     50 H27A        5.7070   -2.9190    0.4590 h1        1 VEK      0.069200
@<TRIPOS>BOND
     1    1    2 1
     2    1   30 1
     3    1   31 1
     4    1   32 1
     5    2    3 2
     6    2   29 1
     7    3    4 1
     8    3   33 1
     9    4    5 1
    10    4   28 2
    11    5    6 1
    12    5   34 1
    13    5   35 1
    14    6    7 1
    15    6   27 1
    16    7    8 1
    17    7   36 1
    18    7   37 1
    19    8    9 1
    20    8   38 1
    21    8   39 1
    22    9   10 1
    23    9   26 1
    24   10   11 ar
    25   10   25 ar
    26   11   12 1
    27   11   13 ar
    28   13   14 ar
    29   13   40 1
    30   14   15 ar
    31   15   16 1
    32   15   25 ar
    33   16   17 2
    34   17   18 1
    35   17   24 1
    36   18   19 2
    37   18   22 1
    38   19   20 1
    39   19   41 1
    40   20   21 2
    41   21   22 1
    42   21   42 1
    43   22   23 1
    44   23   43 1
    45   23   44 1
    46   23   45 1
    47   24   25 1
    48   24   46 1
    49   26   27 1
    50   26   47 1
    51   26   48 1
    52   27   49 1
    53   27   50 1
    54   28   29 1
@<TRIPOS>SUBSTRUCTURE
     1 VEK         1 TEMP              0 ****  ****    0 ROOT
