@<TRIPOS>MOLECULE
molecule
   14    14     1     0     0
SMALL
bcc


@<TRIPOS>ATOM
      1 N5           0.0000     0.0000     0.0000 n7         1 VES      -0.809200
      2 C4           1.4750     0.0000     0.0000 c3         1 VES       0.148300
      3 C3           1.9330     0.0000     1.4720 c3         1 VES      -0.098400
      4 C2           0.7010    -0.5730     2.2220 c3         1 VES      -0.098400
      5 C1          -0.4690     0.0240     1.4020 c3         1 VES       0.148300
      6 H41C         1.8420    -0.8890    -0.4990 h1         1 VES       0.040450
      7 H42C         1.8420     0.8890    -0.4990 h1         1 VES       0.040450
      8 H11C        -1.3560    -0.5880     1.5120 h1         1 VES       0.040450
      9 H12C        -0.6660     1.0430     1.7150 h1         1 VES       0.040450
     10 H31C         2.7930    -0.6450     1.6040 hc         1 VES       0.049700
     11 H32C         2.1470     1.0090     1.8050 hc         1 VES       0.049700
     12 H21C         0.6750    -0.2200     3.2460 hc         1 VES       0.049700
     13 H22C         0.6910    -1.6550     2.1770 hc         1 VES       0.049700
     14 H2          -0.3340     0.8140    -0.4780 hn         1 VES       0.346800
@<TRIPOS>BOND
     1     1     2 1
     2     1     5 1
     3     2     3 1
     4     3     4 1
     5     4     5 1
     6     2     6 1
     7     2     7 1
     8     5     8 1
     9     5     9 1
    10     3    10 1
    11     3    11 1
    12     4    12 1
    13     4    13 1
    14     1    14 1
@<TRIPOS>SUBSTRUCTURE
     1 VES         1 TEMP              0 ****  ****    0 ROOT
