@<TRIPOS>MOLECULE
molecule
   19    21     1     0     0
SMALL
bcc


@<TRIPOS>ATOM
      1 N1           0.0000     0.0000     0.0000 na         1 VFB      -0.174500
      2 CAB          2.3420     0.0020    -1.0030 ca         1 VFB      -0.113000
      3 CAC          4.0770     0.0030     0.6560 ca         1 VFB      -0.099000
      4 CAD          1.3850     0.0000     0.0000 ca         1 VFB      -0.022200
      5 CAE          3.1380     0.0020     1.6640 ca         1 VFB      -0.065000
      6 CAF         -1.1250    -0.0010     3.4040 cc         1 VFB       0.505400
      7 CAG         -0.4130    -0.0010     1.3130 cz         1 VFB       0.093400
      8 NAH         -1.5280    -0.0020     2.1030 na         1 VFB      -0.329900
      9 NAI          0.1770    -0.0010     3.4310 n2         1 VFB      -0.440800
     10 CAJ          3.6820     0.0040    -0.6730 ca         1 VFB      -0.061000
     11 CAK          1.7810     0.0000     1.3450 ca         1 VFB      -0.051200
     12 NAL          0.6410    -0.0010     2.1070 na         1 VFB       0.223300
     13 HN1         -0.5880    -0.1100    -0.8020 hn         1 VFB       0.353700
     14 HAB          2.0390     0.0030    -2.0430 ha         1 VFB       0.166000
     15 HAC          5.1320     0.0040     0.9040 ha         1 VFB       0.174000
     16 HAE          3.4530     0.0010     2.7000 ha         1 VFB       0.175000
     17 HAF         -1.7760     0.0000     4.2690 h5         1 VFB       0.132100
     18 HNAH        -2.4760    -0.0020     1.7820 hn         1 VFB       0.359700
     19 HAJ          4.4300     0.0040    -1.4570 ha         1 VFB       0.173000
@<TRIPOS>BOND
     1     1     4 1
     2     1     7 2
     3     2     4 ar
     4     2    10 ar
     5     3     5 ar
     6     3    10 ar
     7     4    11 ar
     8     5    11 ar
     9     6     8 1
    10     6     9 2
    11     7     8 1
    12     7    12 1
    13     9    12 1
    14    11    12 1
    15     1    13 1
    16     2    14 1
    17     3    15 1
    18     5    16 1
    19     6    17 1
    20     8    18 1
    21    10    19 1
@<TRIPOS>SUBSTRUCTURE
     1 VFB         1 TEMP              0 ****  ****    0 ROOT
