@<TRIPOS>MOLECULE
VFB
   19    21     1     0     0
SMALL
bcc


@<TRIPOS>ATOM
      1 N1         -0.0390   -0.0160   -0.0330 na        1 VFB     -0.170500
      2 CAB         2.3200   -0.0100   -1.0260 ca        1 VFB     -0.100000
      3 CAC         4.0930    0.0060    0.6600 ca        1 VFB     -0.097000
      4 CAD         1.3860   -0.0090    0.0110 ca        1 VFB     -0.046200
      5 CAE         3.1880    0.0070    1.7210 ca        1 VFB     -0.066000
      6 CAF        -1.1120   -0.0050    3.3990 cc        1 VFB      0.456400
      7 CAG        -0.4590   -0.0120    1.2740 cz        1 VFB      0.097400
      8 NAH        -1.5980   -0.0130    2.0580 na        1 VFB     -0.314900
      9 NAI         0.2410    0.0020    3.4630 n2        1 VFB     -0.394800
     10 CAJ         3.6700   -0.0020   -0.6760 ca        1 VFB     -0.080000
     11 CAK         1.8330   -0.0010    1.3950 ca        1 VFB     -0.022200
     12 NAL         0.6580   -0.0030    2.1840 na        1 VFB      0.175300
     13 HN1        -0.6090   -0.0220   -0.8440 hn        1 VFB      0.360700
     14 HAB         2.0070   -0.0160   -2.0810 ha        1 VFB      0.173000
     15 HAC         5.1750    0.0120    0.8820 ha        1 VFB      0.176000
     16 HAE         3.5260    0.0130    2.7690 ha        1 VFB      0.185000
     17 HAF        -1.7920   -0.0040    4.2680 h5        1 VFB      0.126100
     18 HNAH       -2.5430   -0.0190    1.7560 hn        1 VFB      0.370700
     19 HAJ         4.4270   -0.0020   -1.4800 ha        1 VFB      0.174000
@<TRIPOS>BOND
     1    1    4 1   
     2    1    7 2   
     3    1   13 1   
     4    2    4 ar  
     5    2   10 ar  
     6    2   14 1   
     7    3    5 ar  
     8    3   10 ar  
     9    3   15 1   
    10    4   11 ar  
    11    5   11 ar  
    12    5   16 1   
    13    6    8 1   
    14    6    9 2   
    15    6   17 1   
    16    7    8 1   
    17    7   12 1   
    18    8   18 1   
    19    9   12 1   
    20   10   19 1   
    21   11   12 1   
@<TRIPOS>SUBSTRUCTURE
     1 VFB         1 TEMP              0 ****  ****    0 ROOT
