@<TRIPOS>MOLECULE
VFC
   52    56     1     0     0
SMALL
bcc


@<TRIPOS>ATOM
      1 F32          0.0000     0.0000     0.0000 f          1 VFC      -0.130900
      2 C29          1.3520     0.0000     0.0000 ca         1 VFC       0.112900
      3 C28          2.0420     0.0000     1.2090 ca         1 VFC      -0.185000
      4 C26          3.4060     0.0000     1.2290 ca         1 VFC       0.037000
      5 C24          4.1190    -0.0000     0.0270 ca         1 VFC      -0.250900
      6 C27          2.0340    -0.0060    -1.1980 ca         1 VFC      -0.183000
      7 C25          3.4270    -0.0010    -1.1980 ca         1 VFC      -0.124200
      8 N30          4.3730    -0.0020    -2.1910 na         1 VFC       0.480900
      9 C33          4.0930    -0.0040    -3.6290 c3         1 VFC       0.008600
     10 N31          5.6480    -0.0030    -1.6140 nc         1 VFC      -0.619100
     11 C23          5.5470    -0.0020    -0.3070 cd         1 VFC       0.342900
     12 C5           6.6720    -0.0020     0.6570 ca         1 VFC       0.264700
     13 N3           6.4980     0.4850     1.8800 nb         1 VFC      -0.448000
     14 C6           7.9160    -0.5200     0.2810 ca         1 VFC       0.325900
     15 N4           8.9220    -0.5240     1.1310 nb         1 VFC      -0.588000
     16 C2           8.7620    -0.0360     2.3540 ca         1 VFC       0.133500
     17 N7           9.6070     0.0910     3.4340 na         1 VFC       0.319900
     18 C8           8.9620     0.6640     4.4780 cc         1 VFC      -0.289100
     19 C9           7.6720     0.9370     4.1300 cd         1 VFC      -0.346000
     20 C1           7.5100     0.4820     2.7370 ca         1 VFC       0.303800
     21 C10          6.6440     1.5580     4.9780 c          1 VFC       0.612300
     22 O11          5.5250     1.7460     4.5390 o          1 VFC      -0.645100
     23 N12          6.9420     1.9200     6.2410 ns         1 VFC      -0.190900
     24 C13          5.9180     2.5390     7.0860 c3         1 VFC      -0.046300
     25 C22          5.8790     4.0450     6.8200 c3         1 VFC      -0.047100
     26 C14          6.2480     2.2940     8.5360 c          1 VFC       0.619100
     27 O21          7.2400     1.6630     8.8350 o          1 VFC      -0.640100
     28 N15          5.4390     2.7740     9.5020 nj         1 VFC      -0.194800
     29 C17          5.4160     2.7500    10.9710 cy         1 VFC       0.007500
     30 C18          3.8890     2.8840    10.8950 cy         1 VFC       0.107400
     31 C16          4.1970     3.5590     9.5490 cy         1 VFC       0.007500
     32 C19          3.3110     3.7880    11.9030 c1         1 VFC       0.184700
     33 N20          2.8740     4.5010    12.6710 n1         1 VFC      -0.357800
     34 H28          1.4240    -0.5300     1.9240 ha         1 VFC       0.123000
     35 H27          1.2680     0.1650    -1.9450 ha         1 VFC       0.130000
     36 H26          3.9450     0.1340     2.1580 ha         1 VFC       0.138000
     37 H331         4.7310     0.4540    -4.3740 h1         1 VFC       0.022367
     38 H332         3.4810    -0.8460    -3.9300 h1         1 VFC       0.022367
     39 H333         3.5400     0.9260    -3.6990 h1         1 VFC       0.022367
     40 H6           8.4110    -0.9850    -0.5630 h4         1 VFC       0.016100
     41 H7          10.5720     0.0770     3.7020 hn         1 VFC       0.126700
     42 H8           9.0520     0.8350     5.5440 h4         1 VFC       0.175000
     43 H12          7.9300     1.8480     6.3790 hn         1 VFC       0.187500
     44 H13          4.9510     2.1070     6.8580 h1         1 VFC       0.070700
     45 H221         4.8410     3.9290     7.1080 hc         1 VFC       0.036700
     46 H222         5.8380     4.2160     5.7510 hc         1 VFC       0.036700
     47 H223         6.3040     4.4500     7.7310 hc         1 VFC       0.036700
     48 H171         6.3770     3.0330    11.3840 h1         1 VFC       0.049450
     49 H172         5.1810     1.7050    11.1380 h1         1 VFC       0.049450
     50 H161         4.2160     4.5420     9.0950 h1         1 VFC       0.049450
     51 H162         3.2760     3.0290     9.3370 h1         1 VFC       0.049450
     52 H18          3.3820     1.9330    10.7890 hc         1 VFC       0.073700
@<TRIPOS>BOND
     1     1     2 1   
     2     2     3 ar  
     3     2     6 ar  
     4     3     4 ar  
     5     3    34 1   
     6     4     5 ar  
     7     4    36 1   
     8     5     7 ar  
     9     5    11 1   
    10     6     7 ar  
    11     6    35 1   
    12     7     8 1   
    13     8     9 1   
    14     8    10 1   
    15     9    37 1   
    16     9    38 1   
    17     9    39 1   
    18    10    11 2   
    19    11    12 1   
    20    12    13 ar  
    21    12    14 ar  
    22    13    20 ar  
    23    14    15 ar  
    24    14    40 1   
    25    15    16 ar  
    26    16    17 1   
    27    16    20 ar  
    28    17    18 1   
    29    17    41 1   
    30    18    19 2   
    31    18    42 1   
    32    19    20 1   
    33    19    21 1   
    34    21    22 2   
    35    21    23 1   
    36    23    24 1   
    37    23    43 1   
    38    24    25 1   
    39    24    26 1   
    40    24    44 1   
    41    25    45 1   
    42    25    46 1   
    43    25    47 1   
    44    26    27 2   
    45    26    28 1   
    46    28    29 1   
    47    28    31 1   
    48    29    30 1   
    49    29    48 1   
    50    29    49 1   
    51    30    31 1   
    52    30    32 1   
    53    30    52 1   
    54    31    50 1   
    55    31    51 1   
    56    32    33 3   
@<TRIPOS>SUBSTRUCTURE
     1 VFC         1 TEMP              0 ****  ****    0 ROOT
