@<TRIPOS>MOLECULE
VFV
   65    70     1     0     0
SMALL
bcc


@<TRIPOS>ATOM
      1 CAO        -0.9470    0.9640   -1.1010 ca        1 VFV     -0.076500
      2 CAK         0.3780    1.2620   -1.3940 ca        1 VFV     -0.165500
      3 CBD         1.2580    1.6110   -0.3510 ca        1 VFV      0.163900
      4 FAB         2.5480    1.8990   -0.6260 f         1 VFV     -0.118900
      5 CAJ         0.7950    1.6590    0.9790 ca        1 VFV     -0.165500
      6 CAN        -0.5350    1.3640    1.2520 ca        1 VFV     -0.076500
      7 CBG        -1.4180    1.0130    0.2190 cp        1 VFV     -0.106000
      8 CBJ        -2.8120    0.7010    0.5170 cp        1 VFV      0.062000
      9 CAV        -3.5050    1.4220    1.4940 ca        1 VFV     -0.158000
     10 CBE        -4.8470    1.1150    1.7820 ca        1 VFV      0.173900
     11 FAC        -5.5020    1.8270    2.7270 f         1 VFV     -0.121900
     12 CAR        -3.4750   -0.3330   -0.1720 ca        1 VFV     -0.131000
     13 CAS        -4.7970   -0.6390    0.1160 ca        1 VFV     -0.098000
     14 CBK        -5.5060    0.0720    1.0940 ca        1 VFV     -0.229300
     15 CBN        -6.9200   -0.2780    1.4320 c3        1 VFV      0.161800
     16 CAW        -6.9810   -1.7590    1.9210 c3        1 VFV      0.031300
     17 NBO        -8.2890   -2.2280    2.2190 na        1 VFV     -0.256900
     18 CAT        -9.1710   -2.8390    1.3050 cc        1 VFV     -0.323600
     19 CAG       -10.3740   -3.0350    2.0000 cd        1 VFV      0.348200
     20 NAX       -10.2600   -2.5460    3.3060 nd        1 VFV     -0.636000
     21 CAU        -9.0110   -2.0640    3.4200 cc        1 VFV      0.424400
     22 NBA        -7.8310   -0.0310    0.2540 n4        1 VFV     -0.679800
     23 CBC        -8.3360    1.4020    0.1660 c         1 VFV      0.575700
     24 OAA        -8.6200    1.9400    1.2260 o         1 VFV     -0.415100
     25 CBF        -8.4140    1.9680   -1.1820 ca        1 VFV     -0.202600
     26 CAM        -8.2940    3.3640   -1.2960 ca        1 VFV     -0.070500
     27 CAQ        -8.3710    3.9690   -2.5460 ca        1 VFV     -0.104000
     28 CAL        -8.6380    1.1880   -2.3270 ca        1 VFV     -0.070500
     29 CAP        -8.7200    1.7920   -3.5750 ca        1 VFV     -0.104000
     30 CBI        -8.5790    3.1880   -3.6930 ca        1 VFV     -0.027500
     31 CBM        -8.6540    3.8010   -4.9970 cc        1 VFV      0.430900
     32 OBB        -8.5880    5.2050   -5.0990 os        1 VFV     -0.379800
     33 NAZ        -8.7840    3.2760   -6.2400 nd        1 VFV     -0.288000
     34 NAY        -8.8060    4.2460   -7.1220 nd        1 VFV     -0.349000
     35 CBL        -8.6910    5.4420   -6.4790 cc        1 VFV      0.579900
     36 CBH        -8.6630    6.8030   -6.9600 ca        1 VFV     -0.173500
     37 CAI        -8.7550    7.0510   -8.3390 ca        1 VFV     -0.074500
     38 CAF        -8.7300    8.3650   -8.8050 ca        1 VFV     -0.136500
     39 CAD        -8.6150    9.4280   -7.9080 ca        1 VFV     -0.083000
     40 CAE        -8.5240    9.1800   -6.5370 ca        1 VFV     -0.136500
     41 CAH        -8.5470    7.8740   -6.0590 ca        1 VFV     -0.074500
     42 H1         -1.6330    0.6980   -1.9210 ha        1 VFV      0.141000
     43 H2          0.7480    1.2290   -2.4300 ha        1 VFV      0.164500
     44 H3          1.4910    1.9270    1.7880 ha        1 VFV      0.164500
     45 H4         -0.8900    1.3950    2.2940 ha        1 VFV      0.141000
     46 H5         -3.0130    2.2410    2.0440 ha        1 VFV      0.177000
     47 H6         -2.9300   -0.9130   -0.9350 ha        1 VFV      0.164000
     48 H7         -5.2830   -1.4660   -0.4240 ha        1 VFV      0.131000
     49 H8         -7.2970    0.3890    2.2730 hx        1 VFV      0.141700
     50 H9         -6.5120   -2.4300    1.1460 h1        1 VFV      0.100200
     51 H10        -6.3450   -1.7960    2.8550 h1        1 VFV      0.100200
     52 H11        -8.8570   -3.1650    0.3170 h4        1 VFV      0.176000
     53 H12       -11.2990   -3.4950    1.6480 h4        1 VFV      0.064100
     54 H13        -8.5710   -1.6180    4.3210 h5        1 VFV      0.079100
     55 H14        -8.6560   -0.6440    0.3210 hn        1 VFV      0.459300
     56 H15        -8.1430    3.9790   -0.3910 ha        1 VFV      0.151000
     57 H16        -8.2750    5.0640   -2.6380 ha        1 VFV      0.182000
     58 H17        -8.7880    0.1000   -2.2650 ha        1 VFV      0.151000
     59 H18        -8.9030    1.1790   -4.4740 ha        1 VFV      0.182000
     60 H19        -8.8470    6.2150   -9.0520 ha        1 VFV      0.152000
     61 H20        -8.8020    8.5610   -9.8860 ha        1 VFV      0.149500
     62 H21        -8.5960   10.4630   -8.2820 ha        1 VFV      0.149000
     63 H22        -8.4340   10.0200   -5.8310 ha        1 VFV      0.149500
     64 H23        -8.4770    7.6760   -4.9780 ha        1 VFV      0.152000
     65 HBA2       -7.3230   -0.2550   -0.6100 hn        1 VFV      0.459300
@<TRIPOS>BOND
     1    1    2 ar  
     2    1    7 ar  
     3    1   42 1   
     4    2    3 ar  
     5    2   43 1   
     6    3    4 1   
     7    3    5 ar  
     8    5    6 ar  
     9    5   44 1   
    10    6    7 ar  
    11    6   45 1   
    12    7    8 1   
    13    8    9 ar  
    14    8   12 ar  
    15    9   10 ar  
    16    9   46 1   
    17   10   11 1   
    18   10   14 ar  
    19   12   13 ar  
    20   12   47 1   
    21   13   14 ar  
    22   13   48 1   
    23   14   15 1   
    24   15   16 1   
    25   15   22 1   
    26   15   49 1   
    27   16   17 1   
    28   16   50 1   
    29   16   51 1   
    30   17   18 1   
    31   17   21 1   
    32   18   19 2   
    33   18   52 1   
    34   19   20 1   
    35   19   53 1   
    36   20   21 2   
    37   21   54 1   
    38   22   23 1   
    39   22   55 1   
    40   22   65 1   
    41   23   24 2   
    42   23   25 1   
    43   25   26 ar  
    44   25   28 ar  
    45   26   27 ar  
    46   26   56 1   
    47   27   30 ar  
    48   27   57 1   
    49   28   29 ar  
    50   28   58 1   
    51   29   30 ar  
    52   29   59 1   
    53   30   31 1   
    54   31   32 1   
    55   31   33 2   
    56   32   35 1   
    57   33   34 1   
    58   34   35 2   
    59   35   36 1   
    60   36   37 ar  
    61   36   41 ar  
    62   37   38 ar  
    63   37   60 1   
    64   38   39 ar  
    65   38   61 1   
    66   39   40 ar  
    67   39   62 1   
    68   40   41 ar  
    69   40   63 1   
    70   41   64 1   
@<TRIPOS>SUBSTRUCTURE
     1 VFV         1 TEMP              0 ****  ****    0 ROOT
