@<TRIPOS>MOLECULE
molecule
   87    89     1     0     0
SMALL
bcc


@<TRIPOS>ATOM
      1 C1           0.0000     0.0000     0.0000 c          1 VG0       0.684700
      2 N2           1.3660     0.0000     0.0000 ns         1 VG0      -0.587900
      3 C3           2.2090     0.0000     1.2040 c3         1 VG0       0.106700
      4 C4           2.6660     1.4370     1.4430 c3         1 VG0       0.143100
      5 C5           3.3390    -1.0380     0.9600 c3         1 VG0      -0.035100
      6 C6           1.5760     2.3570     1.9670 c3         1 VG0       0.181800
      7 O7          -0.6560     0.0150     1.0410 o          1 VG0      -0.608100
      8 C8          -0.6430    -0.0510    -1.3090 ca         1 VG0      -0.092600
      9 C9          -1.7870     0.7200    -1.6140 ca         1 VG0      -0.158000
     10 C10         -2.3960     0.6410    -2.8830 ca         1 VG0       0.103600
     11 C11         -1.8390    -0.2340    -3.8670 ca         1 VG0      -0.199000
     12 C12         -0.6930    -1.0180    -3.5930 ca         1 VG0       0.216600
     13 C13         -0.0940    -0.9210    -2.2980 ca         1 VG0      -0.204000
     14 C14          2.8510    -2.3180     0.3200 ca         1 VG0      -0.082300
     15 C15          1.7710    -3.0560     0.8860 ca         1 VG0      -0.125500
     16 C16          1.3130    -4.2450     0.2790 ca         1 VG0      -0.131000
     17 C17          1.9300    -4.7180    -0.9020 ca         1 VG0      -0.135000
     18 C18          3.0020    -3.9950    -1.4730 ca         1 VG0      -0.131000
     19 C19          3.4600    -2.7990    -0.8640 ca         1 VG0      -0.125500
     20 N20          2.1310     3.6530     2.3670 n7         1 VG0      -0.854200
     21 O21          3.7080     1.4290     2.4040 oh         1 VG0      -0.587800
     22 N38         -0.1680    -1.8610    -4.5630 nu         1 VG0      -0.816600
     23 C39          1.0120    -2.7260    -4.4060 c3         1 VG0       0.234800
     24 C40          2.2430    -2.0620    -5.0210 c3         1 VG0      -0.118100
     25 N46         -3.5250     1.4050    -3.1520 n          1 VG0      -0.397000
     26 C47         -4.6820     1.4770    -2.2390 c3         1 VG0       0.106000
     27 C48         -5.7880     2.1230    -3.0650 c3         1 VG0      -0.104400
     28 C49         -5.0730     2.8630    -4.1960 c3         1 VG0      -0.162400
     29 C50         -3.7080     2.1770    -4.2650 c          1 VG0       0.703500
     30 O57         -2.9280     2.3260    -5.1990 o          1 VG0      -0.613500
     31 C59          1.3250     4.5580     3.2270 c3         1 VG0       0.203200
     32 C61          0.0330     4.9020     2.4450 c3         1 VG0      -0.103600
     33 C65          2.0930     5.8680     3.5150 c3         1 VG0      -0.103600
     34 C69          0.9700     3.8180     4.5540 c3         1 VG0      -0.061400
     35 C70          2.1710     3.4020     5.4250 c3         1 VG0      -0.076400
     36 C73          1.7370     2.6980     6.7170 c3         1 VG0      -0.073400
     37 C76          2.9030     2.2690     7.6260 c3         1 VG0      -0.071700
     38 C79          2.3440     1.6950     8.9310 c3         1 VG0      -0.087100
     39 C83          3.8460     3.4410     7.9600 c3         1 VG0      -0.087100
     40 H2           1.8280     0.0020    -0.8880 hn         1 VG0       0.314500
     41 H3           1.6140    -0.3230     2.0490 h1         1 VG0       0.090700
     42 H4           3.0480     1.8420     0.5140 h1         1 VG0       0.022700
     43 H5C1         4.0860    -0.5910     0.3150 hc         1 VG0       0.056700
     44 H5C2         3.7990    -1.2790     1.9100 hc         1 VG0       0.056700
     45 H6C1         1.1010     1.8940     2.8230 h1         1 VG0       0.046200
     46 H6C2         0.8380     2.5110     1.1890 h1         1 VG0       0.046200
     47 H21          4.5190     1.6750     1.9900 ho         1 VG0       0.399000
     48 H20          2.4370     4.1500     1.5540 hn         1 VG0       0.349800
     49 H9          -2.2030     1.3800    -0.8620 ha         1 VG0       0.145000
     50 H13          0.7840    -1.5130    -2.0660 ha         1 VG0       0.141000
     51 H11         -2.3030    -0.2970    -4.8430 ha         1 VG0       0.145000
     52 H38         -0.6340    -1.8820    -5.4480 hn         1 VG0       0.430800
     53 H15          1.2940    -2.6990     1.7910 ha         1 VG0       0.135000
     54 H19          4.2820    -2.2500    -1.3070 ha         1 VG0       0.135000
     55 H16          0.4910    -4.7970     0.7190 ha         1 VG0       0.133000
     56 H17          1.5800    -5.6310    -1.3690 ha         1 VG0       0.131000
     57 H18          3.4750    -4.3560    -2.3780 ha         1 VG0       0.133000
     58 H391         1.1880    -2.9030    -3.3520 h1         1 VG0       0.051200
     59 H392         0.8300    -3.6720    -4.9020 h1         1 VG0       0.051200
     60 H401         2.0510    -1.8410    -6.0640 hc         1 VG0       0.041033
     61 H402         3.0910    -2.7310    -4.9430 hc         1 VG0       0.041033
     62 H403         2.4590    -1.1420    -4.4910 hc         1 VG0       0.041033
     63 H471        -4.4450     2.0940    -1.3800 h1         1 VG0       0.056700
     64 H472        -4.9770     0.4830    -1.9270 h1         1 VG0       0.056700
     65 H481        -6.4430     1.3620    -3.4710 hc         1 VG0       0.058200
     66 H482        -6.3490     2.8230    -2.4560 hc         1 VG0       0.058200
     67 H491        -5.6090     2.7380    -5.1290 hc         1 VG0       0.079700
     68 H492        -4.9590     3.9120    -3.9510 hc         1 VG0       0.079700
     69 H611        -0.4020     5.8090     2.8470 hc         1 VG0       0.038700
     70 H612         0.2720     5.0500     1.3990 hc         1 VG0       0.038700
     71 H613        -0.6750     4.0880     2.5420 hc         1 VG0       0.038700
     72 H651         1.6170     6.3930     4.3350 hc         1 VG0       0.038700
     73 H652         3.1170     5.6360     3.7810 hc         1 VG0       0.038700
     74 H653         2.0820     6.4950     2.6310 hc         1 VG0       0.038700
     75 H691         0.3330     4.4660     5.1430 hc         1 VG0       0.037700
     76 H692         0.4090     2.9250     4.3040 hc         1 VG0       0.037700
     77 H701         2.7410     4.2860     5.6820 hc         1 VG0       0.051700
     78 H702         2.8020     2.7310     4.8550 hc         1 VG0       0.051700
     79 H731         1.0960     3.3690     7.2750 hc         1 VG0       0.034700
     80 H732         1.1660     1.8160     6.4520 hc         1 VG0       0.034700
     81 H76          3.4730     1.4980     7.1210 hc         1 VG0       0.048700
     82 H791         1.8380     2.4780     9.4830 hc         1 VG0       0.032200
     83 H792         1.6420     0.9010     8.7050 hc         1 VG0       0.032200
     84 H793         3.1560     1.2990     9.5290 hc         1 VG0       0.032200
     85 H831         4.5230     3.6090     7.1310 hc         1 VG0       0.032200
     86 H832         4.4170     3.2030     8.8500 hc         1 VG0       0.032200
     87 H833         3.2620     4.3360     8.1360 hc         1 VG0       0.032200
@<TRIPOS>BOND
     1     1     2 1
     2     1     7 2
     3     1     8 1
     4     2     3 1
     5     3     4 1
     6     3     5 1
     7     4     6 1
     8     4    21 1
     9     5    14 1
    10     6    20 1
    11     8     9 ar
    12     8    13 ar
    13     9    10 ar
    14    10    11 ar
    15    10    25 1
    16    11    12 ar
    17    12    13 ar
    18    12    22 1
    19    14    15 ar
    20    14    19 ar
    21    15    16 ar
    22    16    17 ar
    23    17    18 ar
    24    18    19 ar
    25    20    31 1
    26    22    23 1
    27    23    24 1
    28    25    26 1
    29    25    29 1
    30    26    27 1
    31    27    28 1
    32    28    29 1
    33    29    30 2
    34    31    32 1
    35    31    33 1
    36    31    34 1
    37    34    35 1
    38    35    36 1
    39    36    37 1
    40    37    38 1
    41    37    39 1
    42     2    40 1
    43     3    41 1
    44     4    42 1
    45     5    43 1
    46     5    44 1
    47     6    45 1
    48     6    46 1
    49    21    47 1
    50    20    48 1
    51     9    49 1
    52    13    50 1
    53    11    51 1
    54    22    52 1
    55    15    53 1
    56    19    54 1
    57    16    55 1
    58    17    56 1
    59    18    57 1
    60    23    58 1
    61    23    59 1
    62    24    60 1
    63    24    61 1
    64    24    62 1
    65    26    63 1
    66    26    64 1
    67    27    65 1
    68    27    66 1
    69    28    67 1
    70    28    68 1
    71    32    69 1
    72    32    70 1
    73    32    71 1
    74    33    72 1
    75    33    73 1
    76    33    74 1
    77    34    75 1
    78    34    76 1
    79    35    77 1
    80    35    78 1
    81    36    79 1
    82    36    80 1
    83    37    81 1
    84    38    82 1
    85    38    83 1
    86    38    84 1
    87    39    85 1
    88    39    86 1
    89    39    87 1
@<TRIPOS>SUBSTRUCTURE
     1 VG0         1 TEMP              0 ****  ****    0 ROOT
