@<TRIPOS>MOLECULE
VG0
   87    89     1     0     0
SMALL
bcc


@<TRIPOS>ATOM
      1 C1           0.0000     0.0000     0.0000 c          1 VG0       0.610700
      2 N2           1.3660     0.0000     0.0000 ns         1 VG0      -0.213900
      3 C3           2.2090     0.0000     1.2040 c3         1 VG0       0.004700
      4 C4           2.6660     1.4370     1.4430 c3         1 VG0       0.188100
      5 C5           3.3390    -1.0380     0.9600 c3         1 VG0       0.034900
      6 C6           1.5760     2.3570     1.9670 c3         1 VG0       0.132800
      7 O7          -0.6560     0.0150     1.0410 o          1 VG0      -0.648100
      8 C8          -0.6430    -0.0510    -1.3090 ca         1 VG0      -0.094600
      9 C9          -1.7870     0.7200    -1.6140 ca         1 VG0      -0.130000
     10 C10         -2.3960     0.6410    -2.8830 ca         1 VG0      -0.026400
     11 C11         -1.8390    -0.2340    -3.8670 ca         1 VG0      -0.169000
     12 C12         -0.6930    -1.0180    -3.5930 ca         1 VG0       0.080600
     13 C13         -0.0940    -0.9210    -2.2980 ca         1 VG0      -0.190000
     14 C14          2.8510    -2.3180     0.3200 ca         1 VG0      -0.095300
     15 C15          1.7710    -3.0560     0.8860 ca         1 VG0      -0.098500
     16 C16          1.3130    -4.2450     0.2790 ca         1 VG0      -0.101000
     17 C17          1.9300    -4.7180    -0.9020 ca         1 VG0      -0.106000
     18 C18          3.0020    -3.9950    -1.4730 ca         1 VG0      -0.101000
     19 C19          3.4600    -2.7990    -0.8640 ca         1 VG0      -0.098500
     20 N20          2.1310     3.6530     2.3670 n7         1 VG0      -0.586200
     21 O21          3.7080     1.4290     2.4040 oh         1 VG0      -0.567800
     22 N38         -0.1680    -1.8610    -4.5630 nu         1 VG0      -0.405600
     23 C39          1.0120    -2.7260    -4.4060 c3         1 VG0       0.157800
     24 C40          2.2430    -2.0620    -5.0210 c3         1 VG0      -0.019100
     25 N46         -3.5250     1.4050    -3.1520 n          1 VG0      -0.021000
     26 C47         -4.6820     1.4770    -2.2390 c3         1 VG0       0.046000
     27 C48         -5.7880     2.1230    -3.0650 c3         1 VG0      -0.040400
     28 C49         -5.0730     2.8630    -4.1960 c3         1 VG0      -0.107400
     29 C50         -3.7080     2.1770    -4.2650 c          1 VG0       0.623500
     30 O57         -2.9280     2.3260    -5.1990 o          1 VG0      -0.654500
     31 C59          1.3250     4.5580     3.2270 c3         1 VG0       0.127200
     32 C61          0.0330     4.9020     2.4450 c3         1 VG0      -0.015100
     33 C65          2.0930     5.8680     3.5150 c3         1 VG0      -0.015100
     34 C69          0.9700     3.8180     4.5540 c3         1 VG0      -0.016400
     35 C70          2.1710     3.4020     5.4250 c3         1 VG0      -0.034400
     36 C73          1.7370     2.6980     6.7170 c3         1 VG0      -0.019400
     37 C76          2.9030     2.2690     7.6260 c3         1 VG0      -0.047700
     38 C79          2.3440     1.6950     8.9310 c3         1 VG0       0.004900
     39 C83          3.8460     3.4410     7.9600 c3         1 VG0       0.004900
     40 H2           1.8280     0.0020    -0.8880 hn         1 VG0       0.180500
     41 H3           1.6140    -0.3230     2.0490 h1         1 VG0       0.066700
     42 H4           3.0480     1.8420     0.5140 h1         1 VG0      -0.009300
     43 H5C1         4.0860    -0.5910     0.3150 hc         1 VG0       0.025200
     44 H5C2         3.7990    -1.2790     1.9100 hc         1 VG0       0.025200
     45 H6C1         1.1010     1.8940     2.8230 h1         1 VG0       0.024700
     46 H6C2         0.8380     2.5110     1.1890 h1         1 VG0       0.024700
     47 H21          4.5190     1.6750     1.9900 ho         1 VG0       0.386000
     48 H20          2.4370     4.1500     1.5540 hn         1 VG0       0.244800
     49 H9          -2.2030     1.3800    -0.8620 ha         1 VG0       0.120000
     50 H13          0.7840    -1.5130    -2.0660 ha         1 VG0       0.122000
     51 H11         -2.3030    -0.2970    -4.8430 ha         1 VG0       0.122000
     52 H38         -0.6340    -1.8820    -5.4480 hn         1 VG0       0.282800
     53 H15          1.2940    -2.6990     1.7910 ha         1 VG0       0.110000
     54 H19          4.2820    -2.2500    -1.3070 ha         1 VG0       0.110000
     55 H16          0.4910    -4.7970     0.7190 ha         1 VG0       0.105500
     56 H17          1.5800    -5.6310    -1.3690 ha         1 VG0       0.104000
     57 H18          3.4750    -4.3560    -2.3780 ha         1 VG0       0.105500
     58 H391         1.1880    -2.9030    -3.3520 h1         1 VG0       0.024700
     59 H392         0.8300    -3.6720    -4.9020 h1         1 VG0       0.024700
     60 H401         2.0510    -1.8410    -6.0640 hc         1 VG0       0.008367
     61 H402         3.0910    -2.7310    -4.9430 hc         1 VG0       0.008367
     62 H403         2.4590    -1.1420    -4.4910 hc         1 VG0       0.008367
     63 H471        -4.4450     2.0940    -1.3800 h1         1 VG0       0.025200
     64 H472        -4.9770     0.4830    -1.9270 h1         1 VG0       0.025200
     65 H481        -6.4430     1.3620    -3.4710 hc         1 VG0       0.026200
     66 H482        -6.3490     2.8230    -2.4560 hc         1 VG0       0.026200
     67 H491        -5.6090     2.7380    -5.1290 hc         1 VG0       0.044200
     68 H492        -4.9590     3.9120    -3.9510 hc         1 VG0       0.044200
     69 H611        -0.4020     5.8090     2.8470 hc         1 VG0       0.009367
     70 H612         0.2720     5.0500     1.3990 hc         1 VG0       0.009367
     71 H613        -0.6750     4.0880     2.5420 hc         1 VG0       0.009367
     72 H651         1.6170     6.3930     4.3350 hc         1 VG0       0.009367
     73 H652         3.1170     5.6360     3.7810 hc         1 VG0       0.009367
     74 H653         2.0820     6.4950     2.6310 hc         1 VG0       0.009367
     75 H691         0.3330     4.4660     5.1430 hc         1 VG0       0.014200
     76 H692         0.4090     2.9250     4.3040 hc         1 VG0       0.014200
     77 H701         2.7410     4.2860     5.6820 hc         1 VG0       0.025700
     78 H702         2.8020     2.7310     4.8550 hc         1 VG0       0.025700
     79 H731         1.0960     3.3690     7.2750 hc         1 VG0       0.009700
     80 H732         1.1660     1.8160     6.4520 hc         1 VG0       0.009700
     81 H76          3.4730     1.4980     7.1210 hc         1 VG0       0.022700
     82 H791         1.8380     2.4780     9.4830 hc         1 VG0       0.001700
     83 H792         1.6420     0.9010     8.7050 hc         1 VG0       0.001700
     84 H793         3.1560     1.2990     9.5290 hc         1 VG0       0.001700
     85 H831         4.5230     3.6090     7.1310 hc         1 VG0       0.001700
     86 H832         4.4170     3.2030     8.8500 hc         1 VG0       0.001700
     87 H833         3.2620     4.3360     8.1360 hc         1 VG0       0.001700
@<TRIPOS>BOND
     1     1     2 1   
     2     1     7 2   
     3     1     8 1   
     4     2     3 1   
     5     2    40 1   
     6     3     4 1   
     7     3     5 1   
     8     3    41 1   
     9     4     6 1   
    10     4    21 1   
    11     4    42 1   
    12     5    14 1   
    13     5    43 1   
    14     5    44 1   
    15     6    20 1   
    16     6    45 1   
    17     6    46 1   
    18     8     9 ar  
    19     8    13 ar  
    20     9    10 ar  
    21     9    49 1   
    22    10    11 ar  
    23    10    25 1   
    24    11    12 ar  
    25    11    51 1   
    26    12    13 ar  
    27    12    22 1   
    28    13    50 1   
    29    14    15 ar  
    30    14    19 ar  
    31    15    16 ar  
    32    15    53 1   
    33    16    17 ar  
    34    16    55 1   
    35    17    18 ar  
    36    17    56 1   
    37    18    19 ar  
    38    18    57 1   
    39    19    54 1   
    40    20    31 1   
    41    20    48 1   
    42    21    47 1   
    43    22    23 1   
    44    22    52 1   
    45    23    24 1   
    46    23    58 1   
    47    23    59 1   
    48    24    60 1   
    49    24    61 1   
    50    24    62 1   
    51    25    26 1   
    52    25    29 1   
    53    26    27 1   
    54    26    63 1   
    55    26    64 1   
    56    27    28 1   
    57    27    65 1   
    58    27    66 1   
    59    28    29 1   
    60    28    67 1   
    61    28    68 1   
    62    29    30 2   
    63    31    32 1   
    64    31    33 1   
    65    31    34 1   
    66    32    69 1   
    67    32    70 1   
    68    32    71 1   
    69    33    72 1   
    70    33    73 1   
    71    33    74 1   
    72    34    35 1   
    73    34    75 1   
    74    34    76 1   
    75    35    36 1   
    76    35    77 1   
    77    35    78 1   
    78    36    37 1   
    79    36    79 1   
    80    36    80 1   
    81    37    38 1   
    82    37    39 1   
    83    37    81 1   
    84    38    82 1   
    85    38    83 1   
    86    38    84 1   
    87    39    85 1   
    88    39    86 1   
    89    39    87 1   
@<TRIPOS>SUBSTRUCTURE
     1 VG0         1 TEMP              0 ****  ****    0 ROOT
