@<TRIPOS>MOLECULE
molecule
   57    59     1     0     0
SMALL
bcc


@<TRIPOS>ATOM
      1 N1           0.0000     0.0000     0.0000 nh         1 VG2      -0.619000
      2 C2           1.4670     0.0000     0.0000 c3         1 VG2       0.176800
      3 C3           2.0050     0.0000     1.4210 c3         1 VG2      -0.079900
      4 C4           1.4770    -1.1930     2.1990 c3         1 VG2      -0.081400
      5 C5          -0.0370    -1.2670     2.1090 c3         1 VG2      -0.079900
      6 C6          -0.5000    -1.2120     0.6610 c3         1 VG2       0.176800
      7 C7          -0.5500     0.2770    -1.2570 ca         1 VG2       0.164600
      8 C8          -1.4580    -0.5950    -1.8410 ca         1 VG2      -0.189000
      9 C9          -1.9810    -0.3110    -3.0920 ca         1 VG2       0.070400
     10 Cl          -3.1090    -1.3970    -3.8150 cl         1 VG2      -0.094400
     11 C11         -1.6020     0.8300    -3.7830 ca         1 VG2      -0.187000
     12 C12         -0.7030     1.7070    -3.2040 ca         1 VG2       0.078600
     13 N13         -0.3020     2.8800    -3.8780 ns         1 VG2      -0.468100
     14 C14          0.9200     3.4190    -3.7880 c          1 VG2       0.679700
     15 O15          1.7970     2.9380    -3.1130 o          1 VG2      -0.565100
     16 C16          1.1520     4.6900    -4.5340 ca         1 VG2      -0.120600
     17 C17          0.1520     5.6480    -4.6280 ca         1 VG2      -0.083500
     18 C18          0.3730     6.8480    -5.2810 ca         1 VG2      -0.085800
     19 C19         -0.7110     7.8910    -5.3580 c3         1 VG2      -0.044300
     20 C20          1.6120     7.0750    -5.8660 ca         1 VG2       0.076100
     21 O21          1.7850     8.2590    -6.5300 os         1 VG2      -0.374900
     22 C22          1.5130     8.2580    -7.9570 c3         1 VG2       0.107400
     23 C23          1.4490     9.6950    -8.4330 c3         1 VG2       0.105800
     24 N24          2.8000    10.3130    -8.4130 nz         1 VG2      -0.814600
     25 C28          2.6320     6.1100    -5.8010 ca         1 VG2      -0.085800
     26 C29          3.9690     6.3520    -6.4520 c3         1 VG2      -0.044300
     27 C30          2.3860     4.9260    -5.1230 ca         1 VG2      -0.083500
     28 C31         -0.1770     1.4200    -1.9530 ca         1 VG2      -0.168000
     29 H2C1         1.8220     0.8850    -0.5140 h1         1 VG2       0.044200
     30 H2C2         1.8220    -0.8850    -0.5140 h1         1 VG2       0.044200
     31 H6C1        -1.5830    -1.2100     0.6340 h1         1 VG2       0.044200
     32 H6C2        -0.1260    -2.0830     0.1360 h1         1 VG2       0.044200
     33 H3C1         1.6960     0.9120     1.9170 hc         1 VG2       0.052450
     34 H3C2         3.0860    -0.0460     1.3900 hc         1 VG2       0.052450
     35 H4C1         1.7670    -1.0950     3.2380 hc         1 VG2       0.044700
     36 H4C2         1.9020    -2.1010     1.7890 hc         1 VG2       0.044700
     37 H5C1        -0.4660    -0.4310     2.6500 hc         1 VG2       0.052450
     38 H5C2        -0.3740    -2.1950     2.5540 hc         1 VG2       0.052450
     39 H8          -1.8020    -1.4640    -1.2950 ha         1 VG2       0.155000
     40 H31          0.5270     2.1090    -1.5030 ha         1 VG2       0.164000
     41 H11         -2.0180     1.0400    -4.7600 ha         1 VG2       0.141000
     42 H13         -0.9740     3.3380    -4.4610 hn         1 VG2       0.319500
     43 H17         -0.8170     5.4530    -4.1830 ha         1 VG2       0.158000
     44 H30          3.1610     4.1720    -5.0630 ha         1 VG2       0.158000
     45 H191        -1.1490     7.8840    -6.3490 hc         1 VG2       0.048533
     46 H192        -0.2870     8.8680    -5.1570 hc         1 VG2       0.048533
     47 H193        -1.4760     7.6710    -4.6230 hc         1 VG2       0.048533
     48 H221         2.3050     7.7350    -8.4790 h1         1 VG2       0.076700
     49 H222         0.5650     7.7680    -8.1470 h1         1 VG2       0.076700
     50 H231         1.0600     9.7200    -9.4430 hx         1 VG2       0.119200
     51 H232         0.7900    10.2580    -7.7820 hx         1 VG2       0.119200
     52 H241         3.4320     9.7520    -8.9490 hn         1 VG2       0.460467
     53 H242         2.7530    11.2320    -8.8090 hn         1 VG2       0.460467
     54 H291         4.2730     7.3770    -6.2820 hc         1 VG2       0.048533
     55 H292         4.7050     5.6810    -6.0250 hc         1 VG2       0.048533
     56 H293         3.8910     6.1700    -7.5170 hc         1 VG2       0.048533
     57 H243         3.1360    10.3530    -7.4710 hn         1 VG2       0.460467
@<TRIPOS>BOND
     1     1     2 1
     2     1     6 1
     3     1     7 1
     4     2     3 1
     5     3     4 1
     6     4     5 1
     7     5     6 1
     8     7     8 ar
     9     7    28 ar
    10     8     9 ar
    11     9    10 1
    12     9    11 ar
    13    11    12 ar
    14    12    13 1
    15    12    28 ar
    16    13    14 1
    17    14    15 2
    18    14    16 1
    19    16    17 ar
    20    16    27 ar
    21    17    18 ar
    22    18    19 1
    23    18    20 ar
    24    20    21 1
    25    20    25 ar
    26    21    22 1
    27    22    23 1
    28    23    24 1
    29    25    26 1
    30    25    27 ar
    31     2    29 1
    32     2    30 1
    33     6    31 1
    34     6    32 1
    35     3    33 1
    36     3    34 1
    37     4    35 1
    38     4    36 1
    39     5    37 1
    40     5    38 1
    41     8    39 1
    42    28    40 1
    43    11    41 1
    44    13    42 1
    45    17    43 1
    46    27    44 1
    47    19    45 1
    48    19    46 1
    49    19    47 1
    50    22    48 1
    51    22    49 1
    52    23    50 1
    53    23    51 1
    54    24    52 1
    55    24    53 1
    56    26    54 1
    57    26    55 1
    58    26    56 1
    59    57    24 1
@<TRIPOS>SUBSTRUCTURE
     1 VG2         1 TEMP              0 ****  ****    0 ROOT
