@<TRIPOS>MOLECULE
molecule
   85    87     1     0     0
SMALL
bcc


@<TRIPOS>ATOM
      1 C1           0.0000     0.0000     0.0000 c          1 VG3       0.682700
      2 N2           1.3660     0.0000     0.0000 ns         1 VG3      -0.591900
      3 C3           2.1890     0.0000     1.2250 c3         1 VG3       0.102700
      4 C4           2.9020     1.3590     1.2660 c3         1 VG3       0.122100
      5 C5           3.1780    -1.1920     1.1940 c3         1 VG3      -0.044100
      6 O6          -0.6490     0.3240     1.0020 o          1 VG3      -0.578100
      7 C7          -0.6090    -0.4010    -1.2790 ca         1 VG3      -0.173600
      8 C8          -0.2150    -1.5950    -1.9550 ca         1 VG3      -0.045000
      9 C9          -0.8100    -1.9480    -3.1920 ca         1 VG3      -0.158000
     10 C10         -1.7970    -1.1170    -3.7670 ca         1 VG3      -0.020000
     11 C11         -2.1960     0.0680    -3.1040 ca         1 VG3      -0.296500
     12 C12         -1.6060     0.4310    -1.8640 ca         1 VG3       0.023000
     13 C13          2.5360    -2.5140     0.8310 ca         1 VG3      -0.085300
     14 C14          3.0370    -3.2830    -0.2560 ca         1 VG3      -0.127500
     15 C15          2.4350    -4.5190    -0.5990 ca         1 VG3      -0.129500
     16 C16          1.3270    -4.9950     0.1420 ca         1 VG3      -0.134000
     17 C17          0.8200    -4.2360     1.2260 ca         1 VG3      -0.129500
     18 C18          1.4210    -3.0030     1.5690 ca         1 VG3      -0.127500
     19 O19          3.7380     1.4860     2.3900 oh         1 VG3      -0.600800
     20 C20          1.9830     4.8540     2.3590 c3         1 VG3       0.123500
     21 C21          1.9010     2.5270     1.2920 c3         1 VG3       0.185800
     22 N22          2.6060     3.7660     1.5850 n7         1 VG3      -0.860200
     23 S23         -3.4250     1.1060    -3.8540 sy         1 VG3       1.165300
     24 C24          0.7870     5.4410     1.5790 c3         1 VG3      -0.081100
     25 C38          1.5230     4.3460     3.7580 c          1 VG3       0.625100
     26 N39          2.5090     4.4200     4.6710 ns         1 VG3      -0.573900
     27 C40          2.3660     3.9450     6.0500 c3         1 VG3       0.107700
     28 O41          0.3870     3.9150     3.9660 o          1 VG3      -0.596100
     29 C43          2.1010     5.1550     6.9740 c3         1 VG3      -0.089900
     30 C44          1.9770     4.6670     8.4720 c3         1 VG3      -0.074900
     31 C45          3.2020     3.8380     8.9350 c3         1 VG3      -0.079400
     32 C46          3.5360     2.6890     7.9450 c3         1 VG3      -0.074900
     33 C47          3.6480     3.1970     6.4820 c3         1 VG3      -0.089900
     34 C60         -4.8730     0.0570    -3.9020 c3         1 VG3      -0.212600
     35 C61         -6.0290     0.8280    -4.5540 c3         1 VG3      -0.059400
     36 C64         -7.3220     0.0090    -4.6620 c3         1 VG3      -0.069400
     37 C67         -8.4560     0.8060    -5.3240 c3         1 VG3      -0.082400
     38 C70         -9.7520    -0.0080    -5.4370 c3         1 VG3      -0.089100
     39 O76         -3.0120     1.3600    -5.2090 o          1 VG3      -0.608800
     40 O77         -3.6560     2.2240    -2.9930 o          1 VG3      -0.608800
     41 H2           1.8360     0.0010    -0.8830 hn         1 VG3       0.313500
     42 H3           1.5440    -0.0920     2.0900 h1         1 VG3       0.101700
     43 H4           3.5120     1.4520     0.3750 h1         1 VG3       0.028700
     44 H5C1         3.9560    -0.9760     0.4720 hc         1 VG3       0.053700
     45 H5C2         3.6330    -1.2880     2.1730 hc         1 VG3       0.053700
     46 H19          4.6320     1.3230     2.1380 ho         1 VG3       0.405000
     47 H211         1.4150     2.6070     0.3280 h1         1 VG3       0.064200
     48 H212         1.1560     2.3460     2.0580 h1         1 VG3       0.064200
     49 H8           0.5420    -2.2360    -1.5190 ha         1 VG3       0.152000
     50 H12         -1.9160     1.3400    -1.3620 ha         1 VG3       0.176000
     51 H9          -0.5050    -2.8550    -3.6990 ha         1 VG3       0.144000
     52 H10         -2.2510    -1.3890    -4.7130 ha         1 VG3       0.143000
     53 H14          3.8850    -2.9210    -0.8250 ha         1 VG3       0.136000
     54 H18          1.0300    -2.4260     2.3980 ha         1 VG3       0.136000
     55 H15          2.8230    -5.0990    -1.4280 ha         1 VG3       0.135500
     56 H16          0.8670    -5.9400    -0.1200 ha         1 VG3       0.133000
     57 H17         -0.0280    -4.6010     1.7920 ha         1 VG3       0.135500
     58 H20          2.7170     5.6380     2.5030 h1         1 VG3       0.056700
     59 H22          3.5060     3.5550     1.9700 hn         1 VG3       0.366800
     60 H241         1.0890     5.6300     0.5560 hc         1 VG3       0.049367
     61 H242         0.4580     6.3660     2.0360 hc         1 VG3       0.049367
     62 H243        -0.0250     4.7240     1.5890 hc         1 VG3       0.049367
     63 H601        -5.1490    -0.2250    -2.8930 h1         1 VG3       0.099200
     64 H602        -4.6580    -0.8320    -4.4810 h1         1 VG3       0.099200
     65 H39          3.3840     4.8200     4.3950 hn         1 VG3       0.309500
     66 H40          1.5250     3.2650     6.1100 h1         1 VG3       0.085700
     67 H431         2.9240     5.8550     6.8930 hc         1 VG3       0.045700
     68 H432         1.1790     5.6390     6.6770 hc         1 VG3       0.045700
     69 H471         4.4930     3.8700     6.4050 hc         1 VG3       0.045700
     70 H472         3.8020     2.3500     5.8250 hc         1 VG3       0.045700
     71 H441         1.8800     5.5340     9.1140 hc         1 VG3       0.042200
     72 H442         1.0870     4.0550     8.5660 hc         1 VG3       0.042200
     73 H451         4.0600     4.4950     9.0120 hc         1 VG3       0.039700
     74 H452         2.9900     3.4120     9.9080 hc         1 VG3       0.039700
     75 H461         4.4790     2.2410     8.2330 hc         1 VG3       0.042200
     76 H462         2.7540     1.9420     7.9980 hc         1 VG3       0.042200
     77 H611        -6.2290     1.7160    -3.9670 hc         1 VG3       0.057700
     78 H612        -5.7260     1.1300    -5.5500 hc         1 VG3       0.057700
     79 H641        -7.1280    -0.8800    -5.2480 hc         1 VG3       0.041200
     80 H642        -7.6350    -0.2860    -3.6670 hc         1 VG3       0.041200
     81 H671        -8.1420     1.1040    -6.3170 hc         1 VG3       0.041200
     82 H672        -8.6500     1.6950    -4.7360 hc         1 VG3       0.041200
     83 H701       -10.0820    -0.3010    -4.4480 hc         1 VG3       0.034367
     84 H702       -10.5180     0.5970    -5.9080 hc         1 VG3       0.034367
     85 H703        -9.5720    -0.8930    -6.0350 hc         1 VG3       0.034367
@<TRIPOS>BOND
     1     1     2 1
     2     1     6 2
     3     1     7 1
     4     2     3 1
     5     3     4 1
     6     3     5 1
     7     4    19 1
     8     4    21 1
     9     5    13 1
    10     7     8 ar
    11     7    12 ar
    12     8     9 ar
    13     9    10 ar
    14    10    11 ar
    15    11    12 ar
    16    11    23 1
    17    13    14 ar
    18    13    18 ar
    19    14    15 ar
    20    15    16 ar
    21    16    17 ar
    22    17    18 ar
    23    20    22 1
    24    20    24 1
    25    20    25 1
    26    21    22 1
    27    23    34 1
    28    23    39 2
    29    23    40 2
    30    25    26 1
    31    25    28 2
    32    26    27 1
    33    27    29 1
    34    27    33 1
    35    29    30 1
    36    30    31 1
    37    31    32 1
    38    32    33 1
    39    34    35 1
    40    35    36 1
    41    36    37 1
    42    37    38 1
    43     2    41 1
    44     3    42 1
    45     4    43 1
    46     5    44 1
    47     5    45 1
    48    19    46 1
    49    21    47 1
    50    21    48 1
    51     8    49 1
    52    12    50 1
    53     9    51 1
    54    10    52 1
    55    14    53 1
    56    18    54 1
    57    15    55 1
    58    16    56 1
    59    17    57 1
    60    20    58 1
    61    22    59 1
    62    24    60 1
    63    24    61 1
    64    24    62 1
    65    34    63 1
    66    34    64 1
    67    26    65 1
    68    27    66 1
    69    29    67 1
    70    29    68 1
    71    33    69 1
    72    33    70 1
    73    30    71 1
    74    30    72 1
    75    31    73 1
    76    31    74 1
    77    32    75 1
    78    32    76 1
    79    35    77 1
    80    35    78 1
    81    36    79 1
    82    36    80 1
    83    37    81 1
    84    37    82 1
    85    38    83 1
    86    38    84 1
    87    38    85 1
@<TRIPOS>SUBSTRUCTURE
     1 VG3         1 TEMP              0 ****  ****    0 ROOT
